<routes>
  <!--Namespace(N=75, filecount=None, input='routes.txt', launch=False, output='singleIntersection.rou.xml', quarter=100)-->
  <vType id="car" accel="4.8" decel="4.5" sigma="1.0" length="0.1" minGap="0.5" maxSpeed="13.89" guiShape="passenger" />
  <!-- <vType id="rsu" accel="0" decel="0" sigma="1.0" length="0.1" minGap="0.5" maxSpeed="13.89" guiShape="passenger" /> -->
  <route id="1" edges="1/0to1/1 1/1to1/2"/>
  <route id="2" edges="1/2to1/1 1/1to1/0"/>
  <route id="3" edges="2/1to1/1 1/1to0/1"/>
  <route id="4" edges="0/1to1/1 1/1to2/1"/>
  <vehicle id="0" type="car" route="2" depart="0"/>
  <vehicle id="1" type="car" route="2" depart="0"/>
  <vehicle id="2" type="car" route="2" depart="0"/>
  <vehicle id="3" type="car" route="2" depart="0"/>
  <vehicle id="4" type="car" route="2" depart="0"/>
  <vehicle id="5" type="car" route="2" depart="0"/>
  <vehicle id="7" type="car" route="2" depart="0"/>
  <!--
  <vehicle id="0" type="car" route="2" depart="0"/>
  <vehicle id="1" type="car" route="3" depart="0"/>
  <vehicle id="2" type="car" route="2" depart="0"/>
  <vehicle id="3" type="car" route="3" depart="0"/>
  <vehicle id="4" type="car" route="2" depart="0"/>
  <vehicle id="5" type="car" route="3" depart="0"/>
  <vehicle id="7" type="car" route="3" depart="0"/>
  <vehicle id="8" type="car" route="3" depart="0"/>
  <vehicle id="9" type="car" route="3" depart="0"/>
  <vehicle id="10" type="car" route="3" depart="0"/>
  <vehicle id="11" type="car" route="3" depart="0"/>
  <vehicle id="12" type="car" route="3" depart="0"/>
  <vehicle id="13" type="car" route="3" depart="0"/>
  <vehicle id="14" type="car" route="3" depart="0"/>
  <vehicle id="15" type="car" route="3" depart="0"/>
  <vehicle id="16" type="car" route="3" depart="0"/>
  <vehicle id="17" type="car" route="3" depart="0"/>
  <vehicle id="18" type="car" route="3" depart="0"/>
  <vehicle id="19" type="car" route="3" depart="0"/>
  <vehicle id="20" type="car" route="3" depart="0"/>
  <vehicle id="21" type="car" route="3" depart="0"/>
  <vehicle id="22" type="car" route="3" depart="0"/>
  <vehicle id="23" type="car" route="3" depart="0"/>
  <vehicle id="24" type="car" route="3" depart="0"/>
  <vehicle id="25" type="car" route="3" depart="0"/>
  <vehicle id="26" type="car" route="3" depart="0"/>
  <vehicle id="27" type="car" route="3" depart="0"/>
  <vehicle id="28" type="car" route="3" depart="0"/>
  <vehicle id="29" type="car" route="3" depart="0"/>
  <vehicle id="30" type="car" route="3" depart="0"/>
  <vehicle id="31" type="car" route="3" depart="0"/>
  <vehicle id="32" type="car" route="3" depart="0"/>
  <vehicle id="33" type="car" route="3" depart="0"/>
  <vehicle id="34" type="car" route="3" depart="0"/>
  <vehicle id="35" type="car" route="3" depart="0"/>
  <vehicle id="36" type="car" route="3" depart="0"/>
  <vehicle id="37" type="car" route="3" depart="0"/>
  <vehicle id="38" type="car" route="3" depart="0"/>
  <vehicle id="39" type="car" route="3" depart="0"/>
  <vehicle id="40" type="car" route="3" depart="0"/>
  <vehicle id="41" type="car" route="3" depart="0"/>
  <vehicle id="42" type="car" route="3" depart="0"/>
  <vehicle id="43" type="car" route="3" depart="0"/>
  <vehicle id="44" type="car" route="3" depart="0"/>
  <vehicle id="45" type="car" route="3" depart="0"/>
  <vehicle id="46" type="car" route="3" depart="0"/>
  <vehicle id="47" type="car" route="3" depart="0"/>
  <vehicle id="48" type="car" route="3" depart="0"/>
  <vehicle id="49" type="car" route="3" depart="0"/>
  <vehicle id="50" type="car" route="3" depart="0"/>
  <vehicle id="51" type="car" route="3" depart="0"/>
  <vehicle id="52" type="car" route="3" depart="0"/>
  <vehicle id="53" type="car" route="3" depart="0"/>
  <vehicle id="54" type="car" route="3" depart="0"/>
  <vehicle id="55" type="car" route="3" depart="0"/>
  <vehicle id="56" type="car" route="3" depart="0"/>
  <vehicle id="57" type="car" route="3" depart="0"/>
  <vehicle id="58" type="car" route="3" depart="0"/>
  <vehicle id="59" type="car" route="3" depart="0"/>
  <vehicle id="60" type="car" route="3" depart="0"/>
  <vehicle id="61" type="car" route="3" depart="0"/>

  <vehicle id="71" type="car" route="3" depart="0"/>
  <vehicle id="72" type="car" route="3" depart="0"/>
  <vehicle id="73" type="car" route="3" depart="0"/>
  <vehicle id="74" type="car" route="3" depart="0"/>
  <vehicle id="75" type="car" route="3" depart="0"/>
  <vehicle id="76" type="car" route="3" depart="0"/>
  <vehicle id="77" type="car" route="3" depart="0"/>
  <vehicle id="78" type="car" route="3" depart="0"/>
  <vehicle id="79" type="car" route="3" depart="0"/>
  <vehicle id="80" type="car" route="3" depart="0"/>
  <vehicle id="81" type="car" route="3" depart="0"/>
  <vehicle id="82" type="car" route="3" depart="0"/>
  <vehicle id="83" type="car" route="3" depart="0"/>
  <vehicle id="84" type="car" route="3" depart="0"/>
  <vehicle id="85" type="car" route="3" depart="0"/>
  <vehicle id="86" type="car" route="3" depart="0"/>
  <vehicle id="87" type="car" route="3" depart="0"/>
  <vehicle id="88" type="car" route="3" depart="0"/>
  <vehicle id="89" type="car" route="3" depart="0"/>
  <vehicle id="90" type="car" route="3" depart="0"/>
  <vehicle id="91" type="car" route="3" depart="0"/>
  <vehicle id="92" type="car" route="3" depart="0"/>
  <vehicle id="93" type="car" route="3" depart="0"/>
  <vehicle id="94" type="car" route="3" depart="0"/>
  <vehicle id="95" type="car" route="3" depart="0"/>
  <vehicle id="96" type="car" route="3" depart="0"/>
  <vehicle id="97" type="car" route="3" depart="0"/>
  <vehicle id="98" type="car" route="3" depart="0"/>
  <vehicle id="99" type="car" route="3" depart="0"/>
  <vehicle id="100" type="car" route="3" depart="0"/>
  <vehicle id="101" type="car" route="3" depart="0"/>
  <vehicle id="102" type="car" route="3" depart="0"/>
  <vehicle id="103" type="car" route="3" depart="0"/>
  <vehicle id="104" type="car" route="3" depart="0"/>
  <vehicle id="105" type="car" route="3" depart="0"/>
  <vehicle id="106" type="car" route="3" depart="0"/>
  <vehicle id="107" type="car" route="3" depart="0"/>
  <vehicle id="108" type="car" route="3" depart="0"/>
  <vehicle id="109" type="car" route="3" depart="0"/>
  <vehicle id="110" type="car" route="3" depart="0"/>
  <vehicle id="111" type="car" route="3" depart="0"/>
  <vehicle id="112" type="car" route="3" depart="0"/>
  <vehicle id="113" type="car" route="3" depart="0"/>
  <vehicle id="114" type="car" route="3" depart="0"/>
  <vehicle id="115" type="car" route="3" depart="0"/>
  <vehicle id="116" type="car" route="3" depart="0"/>
  <vehicle id="117" type="car" route="3" depart="0"/>
  <vehicle id="118" type="car" route="3" depart="0"/>
  <vehicle id="119" type="car" route="3" depart="0"/>
  <vehicle id="120" type="car" route="3" depart="0"/>
  <vehicle id="121" type="car" route="3" depart="0"/>
  <vehicle id="122" type="car" route="3" depart="0"/>
  <vehicle id="123" type="car" route="3" depart="0"/>

  <vehicle id="124" type="car" route="3" depart="0"/>
  <vehicle id="125" type="car" route="3" depart="0"/>
  <vehicle id="126" type="car" route="3" depart="0"/>
  <vehicle id="127" type="car" route="3" depart="0"/>
  <vehicle id="128" type="car" route="3" depart="0"/>
  <vehicle id="129" type="car" route="3" depart="0"/>
  <vehicle id="130" type="car" route="3" depart="0"/>
  <vehicle id="131" type="car" route="3" depart="0"/>
  <vehicle id="132" type="car" route="3" depart="0"/>
  <vehicle id="133" type="car" route="3" depart="0"/>
  <vehicle id="134" type="car" route="3" depart="0"/>
  <vehicle id="135" type="car" route="3" depart="0"/>
  <vehicle id="136" type="car" route="3" depart="0"/>
  <vehicle id="137" type="car" route="3" depart="0"/>
  <vehicle id="138" type="car" route="3" depart="0"/>
  <vehicle id="139" type="car" route="3" depart="0"/>
  <vehicle id="140" type="car" route="3" depart="0"/>
  <vehicle id="141" type="car" route="3" depart="0"/>
  <vehicle id="142" type="car" route="3" depart="0"/>
  <vehicle id="143" type="car" route="3" depart="0"/>
  <vehicle id="144" type="car" route="3" depart="0"/>
  <vehicle id="145" type="car" route="3" depart="0"/>
  <vehicle id="146" type="car" route="3" depart="0"/>
  <vehicle id="147" type="car" route="3" depart="0"/>
  <vehicle id="148" type="car" route="3" depart="0"/>
  <vehicle id="149" type="car" route="3" depart="0"/>
  <vehicle id="150" type="car" route="3" depart="0"/>
  <vehicle id="151" type="car" route="3" depart="0"/>
  <vehicle id="152" type="car" route="3" depart="0"/>
  <vehicle id="153" type="car" route="3" depart="0"/>
  <vehicle id="154" type="car" route="3" depart="0"/>
  <vehicle id="155" type="car" route="3" depart="0"/>
  <vehicle id="156" type="car" route="3" depart="0"/>
  <vehicle id="157" type="car" route="3" depart="0"/>
  <vehicle id="158" type="car" route="3" depart="0"/>
  <vehicle id="159" type="car" route="3" depart="0"/>
  <vehicle id="160" type="car" route="3" depart="0"/>
  <vehicle id="161" type="car" route="3" depart="0"/>
  <vehicle id="162" type="car" route="3" depart="0"/>
  <vehicle id="163" type="car" route="3" depart="0"/>
  <vehicle id="164" type="car" route="3" depart="0"/>
  <vehicle id="165" type="car" route="3" depart="0"/>
  <vehicle id="166" type="car" route="3" depart="0"/>
  <vehicle id="167" type="car" route="3" depart="0"/>
  <vehicle id="168" type="car" route="3" depart="0"/>
  <vehicle id="169" type="car" route="3" depart="0"/>
  <vehicle id="170" type="car" route="3" depart="0"/>
  <vehicle id="171" type="car" route="3" depart="0"/>
  <vehicle id="172" type="car" route="3" depart="0"/>
  <vehicle id="173" type="car" route="3" depart="0"/>
  <vehicle id="174" type="car" route="3" depart="0"/>
  <vehicle id="175" type="car" route="3" depart="0"/>
  <vehicle id="176" type="car" route="3" depart="0"/>

  <vehicle id="177" type="car" route="3" depart="0"/>
  <vehicle id="178" type="car" route="3" depart="0"/>
  <vehicle id="179" type="car" route="3" depart="0"/>
  <vehicle id="180" type="car" route="3" depart="0"/>
  <vehicle id="181" type="car" route="3" depart="0"/>
  <vehicle id="182" type="car" route="3" depart="0"/>
  <vehicle id="183" type="car" route="3" depart="0"/>
  <vehicle id="184" type="car" route="3" depart="0"/>
  <vehicle id="185" type="car" route="3" depart="0"/>
  <vehicle id="186" type="car" route="3" depart="0"/>
  <vehicle id="187" type="car" route="3" depart="0"/>
  <vehicle id="188" type="car" route="3" depart="0"/>
  <vehicle id="189" type="car" route="3" depart="0"/>
  <vehicle id="190" type="car" route="3" depart="0"/>
  <vehicle id="191" type="car" route="3" depart="0"/>
  <vehicle id="192" type="car" route="3" depart="0"/>
  <vehicle id="193" type="car" route="3" depart="0"/>
  <vehicle id="194" type="car" route="3" depart="0"/>
  <vehicle id="195" type="car" route="3" depart="0"/>
  <vehicle id="196" type="car" route="3" depart="0"/>
  <vehicle id="197" type="car" route="3" depart="0"/>
  <vehicle id="198" type="car" route="3" depart="0"/>
  <vehicle id="199" type="car" route="3" depart="0"/>
  <vehicle id="200" type="car" route="3" depart="0"/>
  <vehicle id="201" type="car" route="3" depart="0"/>
  <vehicle id="202" type="car" route="3" depart="0"/>
  <vehicle id="203" type="car" route="3" depart="0"/>
  <vehicle id="204" type="car" route="3" depart="0"/>
  <vehicle id="205" type="car" route="3" depart="0"/>
  <vehicle id="206" type="car" route="3" depart="0"/>
  <vehicle id="207" type="car" route="3" depart="0"/>
  <vehicle id="208" type="car" route="3" depart="0"/>
  <vehicle id="209" type="car" route="3" depart="0"/>
  <vehicle id="210" type="car" route="3" depart="0"/>
  <vehicle id="211" type="car" route="3" depart="0"/>
  <vehicle id="212" type="car" route="3" depart="0"/>
  <vehicle id="213" type="car" route="3" depart="0"/>
  <vehicle id="214" type="car" route="3" depart="0"/>
  <vehicle id="215" type="car" route="3" depart="0"/>
  <vehicle id="216" type="car" route="3" depart="0"/>
  <vehicle id="217" type="car" route="3" depart="0"/>
  <vehicle id="218" type="car" route="3" depart="0"/>
  <vehicle id="219" type="car" route="3" depart="0"/>
  <vehicle id="220" type="car" route="3" depart="0"/>
  <vehicle id="221" type="car" route="3" depart="0"/>
  <vehicle id="222" type="car" route="3" depart="0"/>
  <vehicle id="223" type="car" route="3" depart="0"/>
  <vehicle id="224" type="car" route="3" depart="0"/>
  <vehicle id="225" type="car" route="3" depart="0"/>
  <vehicle id="226" type="car" route="3" depart="0"/>
  <vehicle id="227" type="car" route="3" depart="0"/>
  <vehicle id="228" type="car" route="3" depart="0"/>
  <vehicle id="229" type="car" route="3" depart="0"/>

  <vehicle id="230" type="car" route="3" depart="0"/>
  <vehicle id="231" type="car" route="3" depart="0"/>
  <vehicle id="232" type="car" route="3" depart="0"/>
  <vehicle id="233" type="car" route="3" depart="0"/>
  <vehicle id="234" type="car" route="3" depart="0"/>
  <vehicle id="235" type="car" route="3" depart="0"/>
  <vehicle id="236" type="car" route="3" depart="0"/>
  <vehicle id="237" type="car" route="3" depart="0"/>
  <vehicle id="238" type="car" route="3" depart="0"/>
  <vehicle id="239" type="car" route="3" depart="0"/>
  <vehicle id="240" type="car" route="3" depart="0"/>
  <vehicle id="241" type="car" route="3" depart="0"/>
  <vehicle id="242" type="car" route="3" depart="0"/>
  <vehicle id="243" type="car" route="3" depart="0"/>
  <vehicle id="244" type="car" route="3" depart="0"/>
  <vehicle id="245" type="car" route="3" depart="0"/>
  <vehicle id="246" type="car" route="3" depart="0"/>
  <vehicle id="247" type="car" route="3" depart="0"/>
  <vehicle id="248" type="car" route="3" depart="0"/>
  <vehicle id="249" type="car" route="3" depart="0"/>
  <vehicle id="250" type="car" route="3" depart="0"/>
  <vehicle id="251" type="car" route="3" depart="0"/>
  <vehicle id="252" type="car" route="3" depart="0"/>
  <vehicle id="253" type="car" route="3" depart="0"/>
  <vehicle id="254" type="car" route="3" depart="0"/>
  <vehicle id="255" type="car" route="3" depart="0"/>
  <vehicle id="256" type="car" route="3" depart="0"/>
  <vehicle id="257" type="car" route="3" depart="0"/>
  <vehicle id="258" type="car" route="3" depart="0"/>
  <vehicle id="259" type="car" route="3" depart="0"/>
  <vehicle id="260" type="car" route="3" depart="0"/>
  <vehicle id="261" type="car" route="3" depart="0"/>
  <vehicle id="262" type="car" route="3" depart="0"/>
  <vehicle id="263" type="car" route="3" depart="0"/>
  <vehicle id="264" type="car" route="3" depart="0"/>
  <vehicle id="265" type="car" route="3" depart="0"/>
  <vehicle id="266" type="car" route="3" depart="0"/>
  <vehicle id="267" type="car" route="3" depart="0"/>
  <vehicle id="268" type="car" route="3" depart="0"/>
  <vehicle id="269" type="car" route="3" depart="0"/>
  <vehicle id="270" type="car" route="3" depart="0"/>
  <vehicle id="271" type="car" route="3" depart="0"/>
  <vehicle id="272" type="car" route="3" depart="0"/>
  <vehicle id="273" type="car" route="3" depart="0"/>
  <vehicle id="274" type="car" route="3" depart="0"/>
  <vehicle id="275" type="car" route="3" depart="0"/>
  <vehicle id="276" type="car" route="3" depart="0"/>
  <vehicle id="277" type="car" route="3" depart="0"/>
  <vehicle id="278" type="car" route="3" depart="0"/>
  <vehicle id="279" type="car" route="3" depart="0"/>
  <vehicle id="280" type="car" route="3" depart="0"/>
  <vehicle id="281" type="car" route="3" depart="0"/>
  <vehicle id="282" type="car" route="3" depart="0"/>

  <vehicle id="283" type="car" route="3" depart="0"/>
  <vehicle id="284" type="car" route="3" depart="0"/>
  <vehicle id="285" type="car" route="3" depart="0"/>
  <vehicle id="286" type="car" route="3" depart="0"/>
  <vehicle id="287" type="car" route="3" depart="0"/>
  <vehicle id="288" type="car" route="3" depart="0"/>
  <vehicle id="289" type="car" route="3" depart="0"/>
  <vehicle id="290" type="car" route="3" depart="0"/>
  <vehicle id="291" type="car" route="3" depart="0"/>
  <vehicle id="292" type="car" route="3" depart="0"/>
  <vehicle id="293" type="car" route="3" depart="0"/>
  <vehicle id="294" type="car" route="3" depart="0"/>
  <vehicle id="295" type="car" route="3" depart="0"/>
  <vehicle id="296" type="car" route="3" depart="0"/>
  <vehicle id="297" type="car" route="3" depart="0"/>
  <vehicle id="298" type="car" route="3" depart="0"/>
  <vehicle id="299" type="car" route="3" depart="0"/>
  <vehicle id="300" type="car" route="3" depart="0"/>
  <vehicle id="301" type="car" route="3" depart="0"/>
  <vehicle id="302" type="car" route="3" depart="0"/>
  <vehicle id="303" type="car" route="3" depart="0"/>
  <vehicle id="304" type="car" route="3" depart="0"/>
  <vehicle id="305" type="car" route="3" depart="0"/>
  <vehicle id="306" type="car" route="3" depart="0"/>
  <vehicle id="307" type="car" route="3" depart="0"/>
  <vehicle id="308" type="car" route="3" depart="0"/>
  <vehicle id="309" type="car" route="3" depart="0"/>
  <vehicle id="310" type="car" route="3" depart="0"/>
  <vehicle id="311" type="car" route="3" depart="0"/>
  <vehicle id="312" type="car" route="3" depart="0"/>
  <vehicle id="313" type="car" route="3" depart="0"/>
  <vehicle id="314" type="car" route="3" depart="0"/>
  <vehicle id="315" type="car" route="3" depart="0"/>
  <vehicle id="316" type="car" route="3" depart="0"/>
  <vehicle id="317" type="car" route="3" depart="0"/>
  <vehicle id="318" type="car" route="3" depart="0"/>
  <vehicle id="319" type="car" route="3" depart="0"/>
  <vehicle id="320" type="car" route="3" depart="0"/>
  <vehicle id="321" type="car" route="3" depart="0"/>
  <vehicle id="322" type="car" route="3" depart="0"/>
  <vehicle id="323" type="car" route="3" depart="0"/>
  <vehicle id="324" type="car" route="3" depart="0"/>
  <vehicle id="325" type="car" route="3" depart="0"/>
  <vehicle id="326" type="car" route="3" depart="0"/>
  <vehicle id="327" type="car" route="3" depart="0"/>
  <vehicle id="328" type="car" route="3" depart="0"/>
  <vehicle id="329" type="car" route="3" depart="0"/>
  <vehicle id="330" type="car" route="3" depart="0"/>
  <vehicle id="331" type="car" route="3" depart="0"/>
  <vehicle id="332" type="car" route="3" depart="0"/>
  <vehicle id="333" type="car" route="3" depart="0"/>
  <vehicle id="334" type="car" route="3" depart="0"/>
  <vehicle id="335" type="car" route="3" depart="0"/> -->
  <vehicle id="6" type="car" route="2" depart="10"/>
</routes>
