<?xml version="1.0" encoding="UTF-8"?>
<!-- generated on 2022-11-30 13:19:57.161607 by randomTrips.py v1_13_0+0497-ea965e7841c
<configuration>
    <end value="600"/>
    <net-file value="la.net.xml"/>
    <period value="0.5"/>
    <route-file value="routes.rou.xml"/>
    <output-trip-file value="trips.xml"/>
</configuration>

-->
<routes xmlns:xsi="http://www.w3.org/2001/XMLSchema-instance" xsi:noNamespaceSchemaLocation="http://sumo.dlr.de/xsd/routes_file.xsd">
    <trip id="0" depart="0.00" from="206372069#0" to="-13286058#3"/>
    <trip id="1" depart="0.50" from="-399241936#0" to="-398733944#1"/>
    <trip id="2" depart="1.00" from="398735940#2" to="356674388#4"/>
    <trip id="3" depart="1.50" from="46418442#13" to="-161689804#0"/>
    <trip id="4" depart="2.00" from="1038616343#0" to="-13296712#1"/>
    <trip id="5" depart="2.50" from="-383920668#4" to="13451741#5"/>
    <trip id="6" depart="3.00" from="-13287107#1" to="-381482564#1"/>
    <trip id="7" depart="3.50" from="234665444#0" to="161689824#4"/>
    <trip id="8" depart="4.00" from="-398423698" to="167413476#0"/>
    <trip id="9" depart="4.50" from="399294702" to="-1036246444#2"/>
    <trip id="10" depart="5.00" from="399284195#1" to="381246291#1"/>
    <trip id="11" depart="5.50" from="-45536227#8" to="-206376283#6"/>
    <trip id="12" depart="6.00" from="603942772#1" to="-45536227#7"/>
    <trip id="13" depart="6.50" from="-161689804#9" to="-161689824#7"/>
    <trip id="14" depart="7.00" from="404989093#0" to="172877646#2"/>
    <trip id="15" depart="7.50" from="399284198#0" to="398733941#1"/>
    <trip id="16" depart="8.00" from="161689787#3" to="607576333#0"/>
    <trip id="17" depart="8.50" from="-524499802#2" to="161716025#2"/>
    <trip id="18" depart="9.00" from="399296451#1" to="186070704#4"/>
    <trip id="19" depart="9.50" from="437906536#1" to="161830832#9"/>
    <trip id="20" depart="10.00" from="382238932#0" to="-13357821#0"/>
    <trip id="21" depart="10.50" from="-398735936" to="-399284198#0"/>
    <trip id="22" depart="11.00" from="-13457494#2" to="-398735952#3"/>
    <trip id="23" depart="11.50" from="-161716023#2" to="-399247034"/>
    <trip id="24" depart="12.00" from="186076540#1" to="-518189794#1"/>
    <trip id="25" depart="12.50" from="-521802279#10" to="-382459572#2"/>
    <trip id="26" depart="13.00" from="-399238816#2" to="546570513#2"/>
    <trip id="27" depart="13.50" from="234659538#4" to="185741202#5"/>
    <trip id="28" depart="14.00" from="-326465873" to="398733939#1"/>
    <trip id="29" depart="14.50" from="-237022761#12" to="-572789151#4"/>
    <trip id="30" depart="15.00" from="727977605#1" to="206372069#0"/>
    <trip id="31" depart="15.50" from="161716057#6" to="381196468#1"/>
    <trip id="32" depart="16.00" from="399311989#4" to="399238817#1"/>
    <trip id="33" depart="16.50" from="-398735938#1" to="-13303340#4"/>
    <trip id="34" depart="17.00" from="-399307909#1" to="-399241929#1"/>
    <trip id="35" depart="17.50" from="-382459572#0" to="603531496#1"/>
    <trip id="36" depart="18.00" from="45536227#8" to="-402118707#1"/>
    <trip id="37" depart="18.50" from="237022761#10" to="-604086214#0"/>
    <trip id="38" depart="19.00" from="521802279#11" to="13318047#3"/>
    <trip id="39" depart="19.50" from="-399238813#0" to="-398812989#2"/>
    <trip id="40" depart="20.00" from="161716094#5" to="-399238814#1"/>
    <trip id="41" depart="20.50" from="161890055#3" to="46418443#1"/>
    <trip id="42" depart="21.00" from="-604086214#3" to="-398733935#0"/>
    <trip id="43" depart="21.50" from="922789542#4" to="136751135#0"/>
    <trip id="44" depart="22.00" from="-161689804#3" to="-13360170#2"/>
    <trip id="45" depart="22.50" from="-161716094#0" to="186070738#1"/>
    <trip id="46" depart="23.00" from="399247035#1" to="1046059232#1"/>
    <trip id="47" depart="23.50" from="-13398365#1" to="-579163503#1"/>
    <trip id="48" depart="24.00" from="886540950#2" to="161688767#0"/>
    <trip id="49" depart="24.50" from="604086257#0" to="405164502#1"/>
    <trip id="50" depart="25.00" from="-1038616344#1" to="382492647#1"/>
    <trip id="51" depart="25.50" from="381189083#2" to="161689804#11"/>
    <trip id="52" depart="26.00" from="-399238816#1" to="206372069#4"/>
    <trip id="53" depart="26.50" from="-161716094#7" to="1084151346#0"/>
    <trip id="54" depart="27.00" from="13303340#1" to="603568544#1"/>
    <trip id="55" depart="27.50" from="45536227#7" to="-399238816#0"/>
    <trip id="56" depart="28.00" from="13427698" to="-381189083#1"/>
    <trip id="57" depart="28.50" from="518244671#0" to="438258030#3"/>
    <trip id="58" depart="29.00" from="-399294711#3" to="206372068#2"/>
    <trip id="59" depart="29.50" from="185741202#5" to="-206375355#0"/>
    <trip id="60" depart="30.00" from="398814235#1" to="161689804#5"/>
    <trip id="61" depart="30.50" from="399241930#0" to="161688767#2"/>
    <trip id="62" depart="31.00" from="-1002549048#1" to="-405164831#1"/>
    <trip id="63" depart="31.50" from="-1105774025#13" to="524575359#0"/>
    <trip id="64" depart="32.00" from="45536814#15" to="399296456#0"/>
    <trip id="65" depart="32.50" from="-399296441#0" to="-13380269#1"/>
    <trip id="66" depart="33.00" from="45536814#13" to="603568525#0"/>
    <trip id="67" depart="33.50" from="-161688172#0" to="13384623#2"/>
    <trip id="68" depart="34.00" from="-13419452#3" to="398812993#2"/>
    <trip id="69" depart="34.50" from="398814284#1" to="-161890054#1"/>
    <trip id="70" depart="35.00" from="13360171" to="161716023#1"/>
    <trip id="71" depart="35.50" from="-399238813#0" to="438274649#3"/>
    <trip id="72" depart="36.00" from="1038616343#4" to="-382490911#1"/>
    <trip id="73" depart="36.50" from="161689804#2" to="398733941#1"/>
    <trip id="74" depart="37.00" from="-382238485#0" to="-399307909#0"/>
    <trip id="75" depart="37.50" from="886540947" to="234665444#0"/>
    <trip id="76" depart="38.00" from="1084151347#0" to="161687304#4"/>
    <trip id="77" depart="38.50" from="-161830827#3" to="-398735933#1"/>
    <trip id="78" depart="39.00" from="-45536227#1" to="165521629#1"/>
    <trip id="79" depart="39.50" from="-398735940#1" to="-398733936#1"/>
    <trip id="80" depart="40.00" from="-13421631#3" to="186076381#6"/>
    <trip id="81" depart="40.50" from="-398735938#1" to="47805886#8"/>
    <trip id="82" depart="41.00" from="405164831#1" to="-13434749#0"/>
    <trip id="83" depart="41.50" from="-398737425#1" to="323126705#0"/>
    <trip id="84" depart="42.00" from="-382492647#0" to="-165521629#2"/>
    <trip id="85" depart="42.50" from="572789151#0" to="161830827#6"/>
    <trip id="86" depart="43.00" from="13354289#1" to="399241939#1"/>
    <trip id="87" depart="43.50" from="399284198#2" to="-381243038#5"/>
    <trip id="88" depart="44.00" from="-161689824#3" to="1055588389#3"/>
    <trip id="89" depart="44.50" from="1038616344#1" to="13350034#0"/>
    <trip id="90" depart="45.00" from="398733939#0" to="326489607#1"/>
    <trip id="91" depart="45.50" from="669629537#5" to="-161713861#0"/>
    <trip id="92" depart="46.00" from="-607576343#1" to="-45536814#15"/>
    <trip id="93" depart="46.50" from="437906536#0" to="-398812991#1"/>
    <trip id="94" depart="47.00" from="-381243038#14" to="13287107#7"/>
    <trip id="95" depart="47.50" from="1038616343#0" to="-399247035#1"/>
    <trip id="96" depart="48.00" from="-398812990#0" to="521842189"/>
    <trip id="97" depart="48.50" from="1105774025#4" to="405164831#1"/>
    <trip id="98" depart="49.00" from="161716023#0" to="-13374300#1"/>
    <trip id="99" depart="49.50" from="922921966" to="399305995#0"/>
    <trip id="100" depart="50.00" from="604086214#1" to="524499802#0"/>
    <trip id="101" depart="50.50" from="404989094#2" to="-294585476#1"/>
    <trip id="102" depart="51.00" from="13380269#2" to="-382492648#1"/>
    <trip id="103" depart="51.50" from="-607576333#1" to="-13380269#3"/>
    <trip id="104" depart="52.00" from="-524499802#4" to="682258661#1"/>
    <trip id="105" depart="52.50" from="-399238813#1" to="399241938"/>
    <trip id="106" depart="53.00" from="13303340#5" to="1050247359#1"/>
    <trip id="107" depart="53.50" from="603942772#2" to="886540950#1"/>
    <trip id="108" depart="54.00" from="161716057#2" to="382460879#1"/>
    <trip id="109" depart="54.50" from="-186076540#0" to="-399294715#1"/>
    <trip id="110" depart="55.00" from="604086214#0" to="161836070#1"/>
    <trip id="111" depart="55.50" from="161689817#2" to="398812518#1"/>
    <trip id="112" depart="56.00" from="-13377126#1" to="161890055#5"/>
    <trip id="113" depart="56.50" from="13448531#0" to="404995540#5"/>
    <trip id="114" depart="57.00" from="-206376283#4" to="604060339#1"/>
    <trip id="115" depart="57.50" from="-13458280#0" to="-381206060#0"/>
    <trip id="116" depart="58.00" from="167416467#3" to="333368333#2"/>
    <trip id="117" depart="58.50" from="-398735952#3" to="-161830827#3"/>
    <trip id="118" depart="59.00" from="46418402#0" to="-398812989#1"/>
    <trip id="119" depart="59.50" from="167416467#2" to="186070705"/>
    <trip id="120" depart="60.00" from="1038616340#1" to="161890055#3"/>
    <trip id="121" depart="60.50" from="161688464#1" to="543624991#6"/>
    <trip id="122" depart="61.00" from="-382242305#2" to="382440774#1"/>
    <trip id="123" depart="61.50" from="-398737426#1" to="-604086214#1"/>
    <trip id="124" depart="62.00" from="326489606#2" to="-399294720#3"/>
    <trip id="125" depart="62.50" from="-399311981#1" to="398812541#1"/>
    <trip id="126" depart="63.00" from="-13434749#0" to="13318047#1"/>
    <trip id="127" depart="63.50" from="922789542#7" to="922789542#0"/>
    <trip id="128" depart="64.00" from="-13437268#1" to="-382492647#4"/>
    <trip id="129" depart="64.50" from="-399238813#1" to="543624991#1"/>
    <trip id="130" depart="65.00" from="45536814#8" to="45536814#13"/>
    <trip id="131" depart="65.50" from="-521802279#0" to="-234659538#6"/>
    <trip id="132" depart="66.00" from="399301459#0" to="382238485#0"/>
    <trip id="133" depart="66.50" from="185747928#1" to="703029740#2"/>
    <trip id="134" depart="67.00" from="234668494#2" to="-1038616341#0"/>
    <trip id="135" depart="67.50" from="399294713" to="-399294720#1"/>
    <trip id="136" depart="68.00" from="274749927#0" to="572789151#5"/>
    <trip id="137" depart="68.50" from="-167416467#0" to="-161822263#2"/>
    <trip id="138" depart="69.00" from="-161716057#6" to="161716048#1"/>
    <trip id="139" depart="69.50" from="-399241932#1" to="178032465#0"/>
    <trip id="140" depart="70.00" from="382459572#1" to="-382439721#1"/>
    <trip id="141" depart="70.50" from="186076403#2" to="-399238816#2"/>
    <trip id="142" depart="71.00" from="13396661#0" to="47805886#7"/>
    <trip id="143" depart="71.50" from="402133276#2" to="-161689817#3"/>
    <trip id="144" depart="72.00" from="1038616344#1" to="-399243265#1"/>
    <trip id="145" depart="72.50" from="-1014457434#1" to="399238807#0"/>
    <trip id="146" depart="73.00" from="206372064#1" to="-399238813#0"/>
    <trip id="147" depart="73.50" from="398735952#3" to="161716025#1"/>
    <trip id="148" depart="74.00" from="1050275893#1" to="-1038616342#3"/>
    <trip id="149" depart="74.50" from="-13448531#4" to="45536815#1"/>
    <trip id="150" depart="75.00" from="48331373#0" to="161689824#6"/>
    <trip id="151" depart="75.50" from="399301465#1" to="161890054#3"/>
    <trip id="152" depart="76.00" from="-185741201" to="-161841077#0"/>
    <trip id="153" depart="76.50" from="-399296446#1" to="46418597#2"/>
    <trip id="154" depart="77.00" from="399247044#0" to="405164502#1"/>
    <trip id="155" depart="77.50" from="47805885#1" to="-382460879#1"/>
    <trip id="156" depart="78.00" from="-398812989#2" to="-161716048#1"/>
    <trip id="157" depart="78.50" from="399241934#1" to="45536815#4"/>
    <trip id="158" depart="79.00" from="-723760377" to="186070722#3"/>
    <trip id="159" depart="79.50" from="-186076540#0" to="524575360#1"/>
    <trip id="160" depart="80.00" from="438255393#2" to="607576343#1"/>
    <trip id="161" depart="80.50" from="399294705#2" to="45536814#5"/>
    <trip id="162" depart="81.00" from="-13286058#2" to="398735940#2"/>
    <trip id="163" depart="81.50" from="-438255394#0" to="524575360#4"/>
    <trip id="164" depart="82.00" from="399279689#4" to="437906536#4"/>
    <trip id="165" depart="82.50" from="399294705#2" to="-399241928#1"/>
    <trip id="166" depart="83.00" from="399243265#1" to="-161716060#5"/>
    <trip id="167" depart="83.50" from="438274649#6" to="405163390#1"/>
    <trip id="168" depart="84.00" from="-398733936#2" to="399294711#1"/>
    <trip id="169" depart="84.50" from="13318047#2" to="-399296451#0"/>
    <trip id="170" depart="85.00" from="399247043#0" to="-398735940#1"/>
    <trip id="171" depart="85.50" from="-13279089#1" to="-381243040#2"/>
    <trip id="172" depart="86.00" from="-437799959#2" to="437906536#5"/>
    <trip id="173" depart="86.50" from="604086177#3" to="-399247037"/>
    <trip id="174" depart="87.00" from="206372071#0" to="-607576343#0"/>
    <trip id="175" depart="87.50" from="608730952#3" to="161689804#0"/>
    <trip id="176" depart="88.00" from="579163503#2" to="-161822263#2"/>
    <trip id="177" depart="88.50" from="604086256#2" to="-381189083#1"/>
    <trip id="178" depart="89.00" from="604060348#2" to="-399238818"/>
    <trip id="179" depart="89.50" from="-161716060#2" to="1084151346#0"/>
    <trip id="180" depart="90.00" from="398733936#1" to="-399311983"/>
    <trip id="181" depart="90.50" from="178032465#4" to="145077580#0"/>
    <trip id="182" depart="91.00" from="-579163503#0" to="161830832#6"/>
    <trip id="183" depart="91.50" from="-398812994#0" to="382242305#2"/>
    <trip id="184" depart="92.00" from="-100930395#2" to="523623582#1"/>
    <trip id="185" depart="92.50" from="161689804#13" to="382490910#1"/>
    <trip id="186" depart="93.00" from="398735952#5" to="326489606#0"/>
    <trip id="187" depart="93.50" from="-48331373#2" to="-13426760#1"/>
    <trip id="188" depart="94.00" from="275392557#0" to="-438273062#0"/>
    <trip id="189" depart="94.50" from="-399301465#1" to="404989093#1"/>
    <trip id="190" depart="95.00" from="382490910#1" to="-399294721"/>
    <trip id="191" depart="95.50" from="-399296452" to="-922789542#6"/>
    <trip id="192" depart="96.00" from="-607576343#0" to="-399294712"/>
    <trip id="193" depart="96.50" from="-161830832#5" to="1038616344#0"/>
    <trip id="194" depart="97.00" from="580285684#2" to="381187778#1"/>
    <trip id="195" depart="97.50" from="47805886#5" to="185948997#0"/>
    <trip id="196" depart="98.00" from="-399294715#4" to="161713861#2"/>
    <trip id="197" depart="98.50" from="-1002549048#1" to="-399279689#3"/>
    <trip id="198" depart="99.00" from="1051478559#1" to="161841077#1"/>
    <trip id="199" depart="99.50" from="237022761#0" to="13349793#3"/>
    <trip id="200" depart="100.00" from="1105774025#16" to="-382492648#0"/>
    <trip id="201" depart="100.50" from="13357821#0" to="47805885#2"/>
    <trip id="202" depart="101.00" from="399247044#0" to="-326489606#0"/>
    <trip id="203" depart="101.50" from="-145077580#5" to="161687300#5"/>
    <trip id="204" depart="102.00" from="186076388#1" to="-45536227#2"/>
    <trip id="205" depart="102.50" from="399294715#3" to="398812537"/>
    <trip id="206" depart="103.00" from="326489606#6" to="-398735933#0"/>
    <trip id="207" depart="103.50" from="-381265874#1" to="-13286058#1"/>
    <trip id="208" depart="104.00" from="-398812540" to="13367991#3"/>
    <trip id="209" depart="104.50" from="404995538#1" to="-13448531#1"/>
    <trip id="210" depart="105.00" from="100930395#7" to="186076381#2"/>
    <trip id="211" depart="105.50" from="-381243040#0" to="381243040#4"/>
    <trip id="212" depart="106.00" from="13405586#2" to="-398812543#2"/>
    <trip id="213" depart="106.50" from="237022761#12" to="-1019247293#1"/>
    <trip id="214" depart="107.00" from="398812541#0" to="39922829#1"/>
    <trip id="215" depart="107.50" from="-161716057#5" to="1050275893#1"/>
    <trip id="216" depart="108.00" from="-333368333#1" to="603942772#2"/>
    <trip id="217" depart="108.50" from="161687304#3" to="-13374300#0"/>
    <trip id="218" depart="109.00" from="-398812989#1" to="404989093#2"/>
    <trip id="219" depart="109.50" from="13305516#4" to="399279687#1"/>
    <trip id="220" depart="110.00" from="294585476#4" to="712052305#0"/>
    <trip id="221" depart="110.50" from="167416467#5" to="603568538#1"/>
    <trip id="222" depart="111.00" from="46418442#10" to="185948942#0"/>
    <trip id="223" depart="111.50" from="382490910#0" to="13451741#3"/>
    <trip id="224" depart="112.00" from="399296455#0" to="161713861#2"/>
    <trip id="225" depart="112.50" from="46418597#2" to="398737424#1"/>
    <trip id="226" depart="113.00" from="13360170#3" to="-39922829#1"/>
    <trip id="227" depart="113.50" from="-398812543#3" to="206372064#2"/>
    <trip id="228" depart="114.00" from="398814284#1" to="161688462#3"/>
    <trip id="229" depart="114.50" from="186070735#7" to="-399241941#0"/>
    <trip id="230" depart="115.00" from="-13451741#4" to="-399279687#1"/>
    <trip id="231" depart="115.50" from="-399241930#1" to="-405162744#1"/>
    <trip id="232" depart="116.00" from="161689804#5" to="-167700743#7"/>
    <trip id="233" depart="116.50" from="-398735940#5" to="381243038#8"/>
    <trip id="234" depart="117.00" from="382241129#2" to="-13402047#2"/>
    <trip id="235" depart="117.50" from="-731126812#1" to="161689824#0"/>
    <trip id="236" depart="118.00" from="1014457434#2" to="-382439721#7"/>
    <trip id="237" depart="118.50" from="1038616341#1" to="47805886#6"/>
    <trip id="238" depart="119.00" from="161890055#1" to="381243040#1"/>
    <trip id="239" depart="119.50" from="405162890#1" to="398814238#1"/>
    <trip id="240" depart="120.00" from="-546570512#0" to="-1019999137"/>
    <trip id="241" depart="120.50" from="-46418442#1" to="398812543#2"/>
    <trip id="242" depart="121.00" from="405162741#1" to="603568544#0"/>
    <trip id="243" depart="121.50" from="1038616340#0" to="398812517#5"/>
    <trip id="244" depart="122.00" from="161689824#4" to="172877646#1"/>
    <trip id="245" depart="122.50" from="-398423698" to="-398733935#1"/>
    <trip id="246" depart="123.00" from="1055588389#9" to="-13289551#1"/>
    <trip id="247" depart="123.50" from="-438274649#6" to="381189081#0"/>
    <trip id="248" depart="124.00" from="-608730952#4" to="-255500898#2"/>
    <trip id="249" depart="124.50" from="13349793#6" to="-161841077#0"/>
    <trip id="250" depart="125.00" from="186070731#4" to="-13287107#4"/>
    <trip id="251" depart="125.50" from="-604060325#1" to="161822262#3"/>
    <trip id="252" depart="126.00" from="-13287107#2" to="206372071#3"/>
    <trip id="253" depart="126.50" from="-167416467#5" to="13336675#3"/>
    <trip id="254" depart="127.00" from="-13367991#3" to="-572789151#2"/>
    <trip id="255" depart="127.50" from="-382459572#2" to="-437906536#4"/>
    <trip id="256" depart="128.00" from="398812994#2" to="-572789151#2"/>
    <trip id="257" depart="128.50" from="398812543#0" to="399296456#0"/>
    <trip id="258" depart="129.00" from="-398812992#0" to="-145077580#0"/>
    <trip id="259" depart="129.50" from="-1105774025#12" to="161689804#5"/>
    <trip id="260" depart="130.00" from="976256851" to="-46418442#2"/>
    <trip id="261" depart="130.50" from="234665444#1" to="399241934#2"/>
    <trip id="262" depart="131.00" from="234665446#4" to="398812986#0"/>
    <trip id="263" depart="131.50" from="603568540#0" to="-382238932#0"/>
    <trip id="264" depart="132.00" from="-1105774025#16" to="-186076540#0"/>
    <trip id="265" depart="132.50" from="-161830832#2" to="323126705#1"/>
    <trip id="266" depart="133.00" from="161716735#4" to="-398423685"/>
    <trip id="267" depart="133.50" from="381246292#1" to="398815738#1"/>
    <trip id="268" depart="134.00" from="-29042795" to="181419206"/>
    <trip id="269" depart="134.50" from="398812520#0" to="-161822262#4"/>
    <trip id="270" depart="135.00" from="399294715#6" to="604060348#8"/>
    <trip id="271" depart="135.50" from="-161716060#1" to="-13287107#0"/>
    <trip id="272" depart="136.00" from="-399296457#2" to="381187778#1"/>
    <trip id="273" depart="136.50" from="603942829" to="-607576332#0"/>
    <trip id="274" depart="137.00" from="382439721#6" to="-13451741#4"/>
    <trip id="275" depart="137.50" from="381243038#1" to="186070738#0"/>
    <trip id="276" depart="138.00" from="-161716023#5" to="399238812"/>
    <trip id="277" depart="138.50" from="404995540#0" to="168954643#2"/>
    <trip id="278" depart="139.00" from="-161830827#3" to="669629537#4"/>
    <trip id="279" depart="139.50" from="399241936#1" to="-456945944#3"/>
    <trip id="280" depart="140.00" from="1051463650#0" to="-521802279#5"/>
    <trip id="281" depart="140.50" from="13451741#3" to="-45536814#7"/>
    <trip id="282" depart="141.00" from="404995538#0" to="399294722"/>
    <trip id="283" depart="141.50" from="-161716057#11" to="604060339#1"/>
    <trip id="284" depart="142.00" from="186076540#1" to="399296447#1"/>
    <trip id="285" depart="142.50" from="382241130#1" to="1084151347#1"/>
    <trip id="286" depart="143.00" from="398735936" to="604086175#1"/>
    <trip id="287" depart="143.50" from="-399241928#0" to="399284198#2"/>
    <trip id="288" depart="144.00" from="161689804#12" to="13378642#1"/>
    <trip id="289" depart="144.50" from="1055588389#9" to="398733942#1"/>
    <trip id="290" depart="145.00" from="-399238818" to="404995540#2"/>
    <trip id="291" depart="145.50" from="399296455#1" to="-161689787#4"/>
    <trip id="292" depart="146.00" from="45536815#0" to="-398812543#2"/>
    <trip id="293" depart="146.50" from="13336675#7" to="185747898#1"/>
    <trip id="294" depart="147.00" from="-524499802#4" to="-13289551#0"/>
    <trip id="295" depart="147.50" from="404995540#2" to="-381190351#3"/>
    <trip id="296" depart="148.00" from="-382460879#1" to="399249276"/>
    <trip id="297" depart="148.50" from="-45536814#0" to="45536814#2"/>
    <trip id="298" depart="149.00" from="381266660#1" to="-399243265#0"/>
    <trip id="299" depart="149.50" from="-1038616343#2" to="603568526#0"/>
    <trip id="300" depart="150.00" from="-161688172#0" to="382490911#1"/>
    <trip id="301" depart="150.50" from="13396661#0" to="398812991#1"/>
    <trip id="302" depart="151.00" from="381243038#1" to="206376283#6"/>
    <trip id="303" depart="151.50" from="13402047#0" to="399247036"/>
    <trip id="304" depart="152.00" from="-161689817#1" to="-398733941#1"/>
    <trip id="305" depart="152.50" from="381243038#13" to="-399296453"/>
    <trip id="306" depart="153.00" from="161887948" to="13360170#3"/>
    <trip id="307" depart="153.50" from="161688767#2" to="1050275893#2"/>
    <trip id="308" depart="154.00" from="398812517#1" to="-438274649#0"/>
    <trip id="309" depart="154.50" from="381482568#1" to="-399241934#5"/>
    <trip id="310" depart="155.00" from="-398812991#0" to="-161830827#6"/>
    <trip id="311" depart="155.50" from="-381243038#7" to="-161830827#2"/>
    <trip id="312" depart="156.00" from="161689787#2" to="398814234#1"/>
    <trip id="313" depart="156.50" from="-381204957#0" to="-383920668#3"/>
    <trip id="314" depart="157.00" from="13377126#4" to="383920668#3"/>
    <trip id="315" depart="157.50" from="608204517#0" to="161688464#18"/>
    <trip id="316" depart="158.00" from="-399247038#1" to="-161716023#5"/>
    <trip id="317" depart="158.50" from="-381243039#2" to="-398735940#0"/>
    <trip id="318" depart="159.00" from="-381189081#3" to="-1055588389#4"/>
    <trip id="319" depart="159.50" from="161688768#3" to="-399241940#1"/>
    <trip id="320" depart="160.00" from="607576334#1" to="161716048#1"/>
    <trip id="321" depart="160.50" from="381243040#4" to="-161830832#6"/>
    <trip id="322" depart="161.00" from="438258030#0" to="13402047#4"/>
    <trip id="323" depart="161.50" from="438274649#8" to="161830831#2"/>
    <trip id="324" depart="162.00" from="13350035#0" to="1105774025#4"/>
    <trip id="325" depart="162.50" from="-381196468#2" to="-13374300#4"/>
    <trip id="326" depart="163.00" from="603531496#0" to="13374300#5"/>
    <trip id="327" depart="163.50" from="399294723" to="-608730952#1"/>
    <trip id="328" depart="164.00" from="-13448531#0" to="186076381#10"/>
    <trip id="329" depart="164.50" from="-13376763#1" to="-186070704#2"/>
    <trip id="330" depart="165.00" from="161716735#0" to="-399296439"/>
    <trip id="331" depart="165.50" from="791980470" to="-161830825#1"/>
    <trip id="332" depart="166.00" from="398814237#3" to="178034374#0"/>
    <trip id="333" depart="166.50" from="399247033#0" to="-398735937#0"/>
    <trip id="334" depart="167.00" from="161688464#1" to="13296712#1"/>
    <trip id="335" depart="167.50" from="1105774025#3" to="405164499#1"/>
    <trip id="336" depart="168.00" from="731126812#1" to="-399296451#0"/>
    <trip id="337" depart="168.50" from="186070722#3" to="185741202#6"/>
    <trip id="338" depart="169.00" from="398735949#1" to="603568525#2"/>
    <trip id="339" depart="169.50" from="-382439721#2" to="-382490910#0"/>
    <trip id="340" depart="170.00" from="237022767#5" to="-234659538#3"/>
    <trip id="341" depart="170.50" from="-326489606#8" to="-13451741#10"/>
    <trip id="342" depart="171.00" from="-100930395#6" to="13296712#1"/>
    <trip id="343" depart="171.50" from="167413479" to="-399294700"/>
    <trip id="344" depart="172.00" from="-398735940#5" to="382241129#3"/>
    <trip id="345" depart="172.50" from="381482568#1" to="13305516#2"/>
    <trip id="346" depart="173.00" from="381204957#3" to="523623581#0"/>
    <trip id="347" depart="173.50" from="399243269#0" to="186070735#1"/>
    <trip id="348" depart="174.00" from="255500898#0" to="543624991#3"/>
    <trip id="349" depart="174.50" from="1050247359#0" to="161689824#3"/>
    <trip id="350" depart="175.00" from="234659538#3" to="48331373#9"/>
    <trip id="351" depart="175.50" from="399296445#1" to="-13437268#0"/>
    <trip id="352" depart="176.00" from="-237022761#8" to="-399296456#1"/>
    <trip id="353" depart="176.50" from="398812526#1" to="161830827#0"/>
    <trip id="354" depart="177.00" from="-399279686#1" to="-161830832#0"/>
    <trip id="355" depart="177.50" from="381206058" to="381265874#0"/>
    <trip id="356" depart="178.00" from="603531506#1" to="13437268#0"/>
    <trip id="357" depart="178.50" from="13405586#0" to="-136751135#0"/>
    <trip id="358" depart="179.00" from="-13336675#7" to="1055588389#6"/>
    <trip id="359" depart="179.50" from="-405162741#1" to="-398812992#4"/>
    <trip id="360" depart="180.00" from="-161689804#4" to="604060339#5"/>
    <trip id="361" depart="180.50" from="399305995#1" to="161830832#2"/>
    <trip id="362" depart="181.00" from="603568542#0" to="9249909"/>
    <trip id="363" depart="181.50" from="326489606#4" to="-399241934#1"/>
    <trip id="364" depart="182.00" from="-13336675#8" to="398812990#0"/>
    <trip id="365" depart="182.50" from="13350354#0" to="234665446#2"/>
    <trip id="366" depart="183.00" from="521802279#16" to="-381190351#2"/>
    <trip id="367" depart="183.50" from="161890055#5" to="186076403#4"/>
    <trip id="368" depart="184.00" from="13402047#3" to="-161689804#9"/>
    <trip id="369" depart="184.50" from="-45619519#0" to="-438274649#8"/>
    <trip id="370" depart="185.00" from="323126706#0" to="405162890#0"/>
    <trip id="371" depart="185.50" from="-437906536#3" to="381243038#7"/>
    <trip id="372" depart="186.00" from="-399279686#0" to="603531506#5"/>
    <trip id="373" depart="186.50" from="399294709#0" to="161716023#2"/>
    <trip id="374" depart="187.00" from="13303340#5" to="-402118707#0"/>
    <trip id="375" depart="187.50" from="-405162747#1" to="604086214#3"/>
    <trip id="376" depart="188.00" from="-608730952#3" to="161687300#2"/>
    <trip id="377" depart="188.50" from="703029740#3" to="237022761#5"/>
    <trip id="378" depart="189.00" from="161689817#3" to="1014457434#2"/>
    <trip id="379" depart="189.50" from="-381206060#1" to="-48331373#7"/>
    <trip id="380" depart="190.00" from="398812990#3" to="186070735#2"/>
    <trip id="381" depart="190.50" from="398812993#2" to="-382439721#1"/>
    <trip id="382" depart="191.00" from="161714128#0" to="524499802#4"/>
    <trip id="383" depart="191.50" from="1084151347#0" to="381246291#1"/>
    <trip id="384" depart="192.00" from="-161830827#4" to="607576333#0"/>
    <trip id="385" depart="192.50" from="185741202#4" to="-398812520#0"/>
    <trip id="386" depart="193.00" from="-234659538#1" to="161716023#5"/>
    <trip id="387" depart="193.50" from="161716023#6" to="-161689817#6"/>
    <trip id="388" depart="194.00" from="777294311#5" to="510562261#6"/>
    <trip id="389" depart="194.50" from="13318047#6" to="-161830824#1"/>
    <trip id="390" depart="195.00" from="399296457#1" to="13421631#3"/>
    <trip id="391" depart="195.50" from="382440774#2" to="13467581#1"/>
    <trip id="392" depart="196.00" from="-399241934#3" to="399301459#1"/>
    <trip id="393" depart="196.50" from="608730952#0" to="-398812543#1"/>
    <trip id="394" depart="197.00" from="161716023#3" to="-603531496#3"/>
    <trip id="395" depart="197.50" from="523623581#0" to="13458280#1"/>
    <trip id="396" depart="198.00" from="45536814#2" to="437906536#4"/>
    <trip id="397" depart="198.50" from="-399241938" to="399247030"/>
    <trip id="398" depart="199.00" from="1014457434#0" to="543624991#4"/>
    <trip id="399" depart="199.50" from="13451741#9" to="399294716#1"/>
    <trip id="400" depart="200.00" from="-399247038#1" to="-399294716#0"/>
    <trip id="401" depart="200.50" from="161890065#1" to="922921966"/>
    <trip id="402" depart="201.00" from="13398365#2" to="-186070704#0"/>
    <trip id="403" depart="201.50" from="161689804#14" to="-45619519#3"/>
    <trip id="404" depart="202.00" from="161716023#5" to="161689824#11"/>
    <trip id="405" depart="202.50" from="13305516#1" to="-405162889"/>