<?xml version="1.0" encoding="UTF-8"?>

<!-- generated on Fri 17 Feb 2023 12:06:29 AM UTC by Eclipse SUMO GUI Version 1.8.0
-->

<configuration xmlns:xsi="http://www.w3.org/2001/XMLSchema-instance" xsi:noNamespaceSchemaLocation="http://sumo.dlr.de/xsd/sumoConfiguration.xsd">

    <input>
        <net-file value="circle.net.xml"/>
        <route-files value="circle.rou.xml"/>
        <additional-files value="circle.add.xml"/>
    </input>

</configuration>
