<?xml version="1.0" encoding="UTF-8"?>

<!-- generated on 2022-12-07 08:56:39 by Eclipse SUMO netedit Version v1_13_0+0497-ea965e7841c
<configuration xmlns:xsi="http://www.w3.org/2001/XMLSchema-instance" xsi:noNamespaceSchemaLocation="http://sumo.dlr.de/xsd/netconvertConfiguration.xsd">

    <input>
        <sumo-net-file value="heterogeneous_300_cars.net.xml"/>
    </input>

    <output>
        <output-file value="heterogeneous_300_cars.net.xml"/>
    </output>

    <processing>
        <geometry.min-radius.fix.railways value="false"/>
        <geometry.max-grade.fix value="false"/>
        <offset.disable-normalization value="true"/>
        <lefthand value="false"/>
    </processing>

    <junctions>
        <no-turnarounds value="true"/>
        <junctions.corner-detail value="0"/>
        <junctions.limit-turn-speed value="-1"/>
        <rectangular-lane-cut value="false"/>
    </junctions>

    <pedestrian>
        <walkingareas value="false"/>
    </pedestrian>

</configuration>
-->

<net version="1.9" xmlns:xsi="http://www.w3.org/2001/XMLSchema-instance" xsi:noNamespaceSchemaLocation="http://sumo.dlr.de/xsd/net_file.xsd">

    <location netOffset="0.00,0.00" convBoundary="0.00,0.00,400.00,400.00" origBoundary="0.00,0.00,400.00,400.00" projParameter="!"/>

    <edge id=":0/0_0" function="internal">
        <lane id=":0/0_0_0" index="0" speed="13.90" length="7.74" shape="-1.60,3.20 -1.30,1.10 -0.40,-0.40 1.10,-1.30 3.20,-1.60"/>
    </edge>
    <edge id=":0/0_1" function="internal">
        <lane id=":0/0_1_0" index="0" speed="13.90" length="2.58" shape="3.20,1.60 2.50,1.70 2.00,2.00 1.70,2.50 1.60,3.20"/>
    </edge>
    <edge id=":0/1_0" function="internal">
        <lane id=":0/1_0_0" index="0" speed="13.90" length="14.40" shape="-1.60,207.20 -1.60,192.80"/>
    </edge>
    <edge id=":0/1_1" function="internal">
        <lane id=":0/1_1_0" index="0" speed="13.90" length="13.44" shape="-1.60,207.20 -0.81,204.07 1.24,201.24 4.07,199.19 7.20,198.40"/>
    </edge>
    <edge id=":0/1_2" function="internal">
        <lane id=":0/1_2_0" index="0" speed="13.90" length="9.03" shape="7.20,201.60 4.75,201.95 3.00,203.00 1.95,204.75 1.60,207.20"/>
    </edge>
    <edge id=":0/1_3" function="internal">
        <lane id=":0/1_3_0" index="0" speed="13.90" length="13.44" shape="7.20,201.60 4.07,200.81 1.24,198.76 -0.81,195.93 -1.60,192.80"/>
    </edge>
    <edge id=":0/1_4" function="internal">
        <lane id=":0/1_4_0" index="0" speed="13.90" length="9.03" shape="1.60,192.80 1.95,195.25 3.00,197.00 4.75,198.05 7.20,198.40"/>
    </edge>
    <edge id=":0/1_5" function="internal">
        <lane id=":0/1_5_0" index="0" speed="13.90" length="14.40" shape="1.60,192.80 1.60,207.20"/>
    </edge>
    <edge id=":0/2_0" function="internal">
        <lane id=":0/2_0_0" index="0" speed="13.90" length="7.74" shape="3.20,401.60 1.10,401.30 -0.40,400.40 -1.30,398.90 -1.60,396.80"/>
    </edge>
    <edge id=":0/2_1" function="internal">
        <lane id=":0/2_1_0" index="0" speed="13.90" length="2.58" shape="1.60,396.80 1.70,397.50 2.00,398.00 2.50,398.30 3.20,398.40"/>
    </edge>
    <edge id=":1/0_0" function="internal">
        <lane id=":1/0_0_0" index="0" speed="13.90" length="9.03" shape="192.00,7.20 191.65,4.75 190.60,3.00 188.85,1.95 186.40,1.60"/>
    </edge>
    <edge id=":1/0_1" function="internal">
        <lane id=":1/0_1_0" index="0" speed="13.90" length="13.44" shape="198.40,7.20 199.19,4.07 201.24,1.24 204.07,-0.81 207.20,-1.60"/>
    </edge>
    <edge id=":1/0_2" function="internal">
        <lane id=":1/0_2_0" index="0" speed="13.90" length="9.03" shape="207.20,1.60 204.75,1.95 203.00,3.00 201.95,4.75 201.60,7.20"/>
    </edge>
    <edge id=":1/0_3" function="internal">
        <lane id=":1/0_3_0" index="0" speed="13.90" length="20.80" shape="207.20,1.60 186.40,1.60"/>
    </edge>
    <edge id=":1/0_4" function="internal">
        <lane id=":1/0_4_0" index="0" speed="13.90" length="20.80" shape="186.40,-1.60 207.20,-1.60"/>
    </edge>
    <edge id=":1/0_5" function="internal">
        <lane id=":1/0_5_0" index="0" speed="13.90" length="18.60" shape="186.40,-1.60 191.24,-0.84 196.20,1.15 200.05,3.97 201.60,7.20"/>
    </edge>
    <edge id=":1/1_0" function="internal">
        <lane id=":1/1_0_0" index="0" speed="13.90" length="9.03" shape="192.00,207.20 191.65,204.75 190.60,203.00 188.85,201.95 186.40,201.60"/>
    </edge>
    <edge id=":1/1_1" function="internal">
        <lane id=":1/1_1_0" index="0" speed="13.90" length="14.40" shape="192.00,207.20 192.00,192.80"/>
        <lane id=":1/1_1_1" index="1" speed="13.90" length="14.40" shape="195.20,207.20 195.20,192.80"/>
        <lane id=":1/1_1_2" index="2" speed="13.90" length="14.40" shape="198.40,207.20 198.40,192.80"/>
    </edge>
    <edge id=":1/1_4" function="internal">
        <lane id=":1/1_4_0" index="0" speed="13.90" length="13.44" shape="198.40,207.20 199.19,204.07 201.24,201.24 204.07,199.19 207.20,198.40"/>
    </edge>
    <edge id=":1/1_5" function="internal">
        <lane id=":1/1_5_0" index="0" speed="13.90" length="9.03" shape="207.20,201.60 204.75,201.95 203.00,203.00 201.95,204.75 201.60,207.20"/>
    </edge>
    <edge id=":1/1_6" function="internal">
        <lane id=":1/1_6_0" index="0" speed="13.90" length="20.80" shape="207.20,201.60 186.40,201.60"/>
    </edge>
    <edge id=":1/1_7" function="internal">
        <lane id=":1/1_7_0" index="0" speed="13.90" length="13.44" shape="207.20,201.60 204.07,200.81 201.24,198.76 199.19,195.93 198.40,192.80"/>
    </edge>
    <edge id=":1/1_8" function="internal">
        <lane id=":1/1_8_0" index="0" speed="13.90" length="9.03" shape="201.60,192.80 201.95,195.25 203.00,197.00 204.75,198.05 207.20,198.40"/>
    </edge>
    <edge id=":1/1_9" function="internal">
        <lane id=":1/1_9_0" index="0" speed="13.90" length="14.40" shape="201.60,192.80 201.60,207.20"/>
    </edge>
    <edge id=":1/1_10" function="internal">
        <lane id=":1/1_10_0" index="0" speed="13.90" length="18.60" shape="201.60,192.80 200.05,196.03 196.20,198.85 191.24,200.84 186.40,201.60"/>
    </edge>
    <edge id=":1/1_11" function="internal">
        <lane id=":1/1_11_0" index="0" speed="13.90" length="9.03" shape="186.40,198.40 188.85,198.05 190.60,197.00 191.65,195.25 192.00,192.80"/>
    </edge>
    <edge id=":1/1_12" function="internal">
        <lane id=":1/1_12_0" index="0" speed="13.90" length="20.80" shape="186.40,198.40 207.20,198.40"/>
    </edge>
    <edge id=":1/1_13" function="internal">
        <lane id=":1/1_13_0" index="0" speed="13.90" length="18.60" shape="186.40,198.40 191.24,199.16 196.20,201.15 200.05,203.97 201.60,207.20"/>
    </edge>
    <edge id=":1/2_0" function="internal">
        <lane id=":1/2_0_0" index="0" speed="13.90" length="20.80" shape="207.20,401.60 186.40,401.60"/>
    </edge>
    <edge id=":1/2_1" function="internal">
        <lane id=":1/2_1_0" index="0" speed="13.90" length="15.94" shape="207.20,401.60 203.23,400.84 199.34,398.85 196.38,396.03 195.20,392.80"/>
        <lane id=":1/2_1_1" index="1" speed="13.90" length="13.44" shape="207.20,401.60 204.07,400.81 201.24,398.76 199.19,395.93 198.40,392.80"/>
    </edge>
    <edge id=":1/2_3" function="internal">
        <lane id=":1/2_3_0" index="0" speed="13.90" length="9.03" shape="201.60,392.80 201.95,395.25 203.00,397.00 204.75,398.05 207.20,398.40"/>
    </edge>
    <edge id=":1/2_4" function="internal">
        <lane id=":1/2_4_0" index="0" speed="13.90" length="18.60" shape="201.60,392.80 200.05,396.03 196.20,398.85 191.24,400.84 186.40,401.60"/>
    </edge>
    <edge id=":1/2_5" function="internal">
        <lane id=":1/2_5_0" index="0" speed="13.90" length="9.03" shape="186.40,398.40 188.85,398.05 190.60,397.00 191.65,395.25 192.00,392.80"/>
    </edge>
    <edge id=":1/2_6" function="internal">
        <lane id=":1/2_6_0" index="0" speed="13.90" length="20.80" shape="186.40,398.40 207.20,398.40"/>
    </edge>
    <edge id=":2/0_0" function="internal">
        <lane id=":2/0_0_0" index="0" speed="13.90" length="2.58" shape="398.40,3.20 398.30,2.50 398.00,2.00 397.50,1.70 396.80,1.60"/>
    </edge>
    <edge id=":2/0_1" function="internal">
        <lane id=":2/0_1_0" index="0" speed="13.90" length="7.74" shape="396.80,-1.60 398.90,-1.30 400.40,-0.40 401.30,1.10 401.60,3.20"/>
    </edge>
    <edge id=":2/1_0" function="internal">
        <lane id=":2/1_0_0" index="0" speed="13.90" length="9.03" shape="398.40,207.20 398.05,204.75 397.00,203.00 395.25,201.95 392.80,201.60"/>
    </edge>
    <edge id=":2/1_1" function="internal">
        <lane id=":2/1_1_0" index="0" speed="13.90" length="14.40" shape="398.40,207.20 398.40,192.80"/>
    </edge>
    <edge id=":2/1_2" function="internal">
        <lane id=":2/1_2_0" index="0" speed="13.90" length="14.40" shape="401.60,192.80 401.60,207.20"/>
    </edge>
    <edge id=":2/1_3" function="internal">
        <lane id=":2/1_3_0" index="0" speed="13.90" length="13.44" shape="401.60,192.80 400.81,195.93 398.76,198.76 395.93,200.81 392.80,201.60"/>
    </edge>
    <edge id=":2/1_4" function="internal">
        <lane id=":2/1_4_0" index="0" speed="13.90" length="9.03" shape="392.80,198.40 395.25,198.05 397.00,197.00 398.05,195.25 398.40,192.80"/>
    </edge>
    <edge id=":2/1_5" function="internal">
        <lane id=":2/1_5_0" index="0" speed="13.90" length="13.44" shape="392.80,198.40 395.93,199.19 398.76,201.24 400.81,204.07 401.60,207.20"/>
    </edge>
    <edge id=":2/2_0" function="internal">
        <lane id=":2/2_0_0" index="0" speed="13.90" length="7.74" shape="401.60,396.80 401.30,398.90 400.40,400.40 398.90,401.30 396.80,401.60"/>
    </edge>
    <edge id=":2/2_1" function="internal">
        <lane id=":2/2_1_0" index="0" speed="13.90" length="2.58" shape="396.80,398.40 397.50,398.30 398.00,398.00 398.30,397.50 398.40,396.80"/>
    </edge>
    <edge id=":J4_0" function="internal">
        <lane id=":J4_0_0" index="0" speed="13.89" length="2.47" shape="187.16,210.05 186.51,209.90 186.04,209.59 185.77,209.09 185.68,208.43"/>
    </edge>
    <edge id=":J5_0" function="internal">
        <lane id=":J5_0_0" index="0" speed="13.89" length="2.54" shape="185.95,188.26 186.06,187.57 186.36,187.08 186.85,186.78 187.54,186.68"/>
    </edge>
    <edge id=":J6_0" function="internal">
        <lane id=":J6_0_0" index="0" speed="13.89" length="2.58" shape="211.69,186.46 212.39,186.55 212.89,186.85 213.19,187.35 213.30,188.04"/>
    </edge>
    <edge id=":J7_0" function="internal">
        <lane id=":J7_0_0" index="0" speed="13.89" length="2.74" shape="213.52,210.26 213.42,211.02 213.10,211.54 212.56,211.82 211.80,211.88"/>
    </edge>

    <edge id="0/0to0/1" from="0/0" to="0/1" priority="-1">
        <lane id="0/0to0/1_0" index="0" speed="13.90" length="189.60" shape="1.60,3.20 1.60,192.80"/>
    </edge>
    <edge id="0/0to1/0" from="0/0" to="1/0" priority="-1">
        <lane id="0/0to1/0_0" index="0" speed="13.90" length="183.20" shape="3.20,-1.60 186.40,-1.60"/>
    </edge>
    <edge id="0/1to0/0" from="0/1" to="0/0" priority="-1">
        <lane id="0/1to0/0_0" index="0" speed="13.90" length="189.60" shape="-1.60,192.80 -1.60,3.20"/>
    </edge>
    <edge id="0/1to0/2" from="0/1" to="0/2" priority="-1">
        <lane id="0/1to0/2_0" index="0" speed="13.90" length="189.60" shape="1.60,207.20 1.60,396.80"/>
    </edge>
    <edge id="0/1to1/1" from="0/1" to="1/1" priority="-1">
        <lane id="0/1to1/1_0" index="0" speed="13.90" length="179.20" shape="7.20,198.40 186.40,198.40"/>
    </edge>
    <edge id="0/2to0/1" from="0/2" to="0/1" priority="-1">
        <lane id="0/2to0/1_0" index="0" speed="13.90" length="189.60" shape="-1.60,396.80 -1.60,207.20"/>
    </edge>
    <edge id="0/2to1/2" from="0/2" to="1/2" priority="-1">
        <lane id="0/2to1/2_0" index="0" speed="13.90" length="183.20" shape="3.20,398.40 186.40,398.40"/>
    </edge>
    <edge id="1/0to0/0" from="1/0" to="0/0" priority="-1">
        <lane id="1/0to0/0_0" index="0" speed="13.90" length="183.20" shape="186.40,1.60 3.20,1.60"/>
    </edge>
    <edge id="1/0to1/1" from="1/0" to="1/1" priority="-1">
        <lane id="1/0to1/1_0" index="0" speed="13.90" length="185.60" shape="201.60,7.20 201.60,192.80"/>
    </edge>
    <edge id="1/0to2/0" from="1/0" to="2/0" priority="-1">
        <lane id="1/0to2/0_0" index="0" speed="13.90" length="189.60" shape="207.20,-1.60 396.80,-1.60"/>
    </edge>
    <edge id="1/1to0/1" from="1/1" to="0/1" priority="-1">
        <lane id="1/1to0/1_0" index="0" speed="13.90" length="179.20" shape="186.40,201.60 7.20,201.60"/>
    </edge>
    <edge id="1/1to1/0" from="1/1" to="1/0" priority="-1">
        <lane id="1/1to1/0_0" index="0" speed="13.90" length="185.60" shape="192.00,192.80 192.00,7.20"/>
        <lane id="1/1to1/0_1" index="1" speed="13.90" length="185.60" shape="195.20,192.80 195.20,7.20"/>
        <lane id="1/1to1/0_2" index="2" speed="13.90" length="185.60" shape="198.40,192.80 198.40,7.20"/>
    </edge>
    <edge id="1/1to1/2" from="1/1" to="1/2" priority="-1">
        <lane id="1/1to1/2_0" index="0" speed="13.90" length="185.60" shape="201.60,207.20 201.60,392.80"/>
    </edge>
    <edge id="1/1to2/1" from="1/1" to="2/1" priority="-1">
        <lane id="1/1to2/1_0" index="0" speed="13.90" length="185.60" shape="207.20,198.40 392.80,198.40"/>
    </edge>
    <edge id="1/2to0/2" from="1/2" to="0/2" priority="-1">
        <lane id="1/2to0/2_0" index="0" speed="13.90" length="183.20" shape="186.40,401.60 3.20,401.60"/>
    </edge>
    <edge id="1/2to1/1" from="1/2" to="1/1" priority="-1">
        <lane id="1/2to1/1_0" index="0" speed="13.90" length="185.60" shape="192.00,392.80 192.00,207.20"/>
        <lane id="1/2to1/1_1" index="1" speed="13.90" length="185.60" shape="195.20,392.80 195.20,207.20"/>
        <lane id="1/2to1/1_2" index="2" speed="13.90" length="185.60" shape="198.40,392.80 198.40,207.20"/>
    </edge>
    <edge id="1/2to2/2" from="1/2" to="2/2" priority="-1">
        <lane id="1/2to2/2_0" index="0" speed="13.90" length="189.60" shape="207.20,398.40 396.80,398.40"/>
    </edge>
    <edge id="2/0to1/0" from="2/0" to="1/0" priority="-1">
        <lane id="2/0to1/0_0" index="0" speed="13.90" length="189.60" shape="396.80,1.60 207.20,1.60"/>
    </edge>
    <edge id="2/0to2/1" from="2/0" to="2/1" priority="-1">
        <lane id="2/0to2/1_0" index="0" speed="13.90" length="189.60" shape="401.60,3.20 401.60,192.80"/>
    </edge>
    <edge id="2/1to1/1" from="2/1" to="1/1" priority="-1">
        <lane id="2/1to1/1_0" index="0" speed="13.90" length="185.60" shape="392.80,201.60 207.20,201.60"/>
    </edge>
    <edge id="2/1to2/0" from="2/1" to="2/0" priority="-1">
        <lane id="2/1to2/0_0" index="0" speed="13.90" length="189.60" shape="398.40,192.80 398.40,3.20"/>
    </edge>
    <edge id="2/1to2/2" from="2/1" to="2/2" priority="-1">
        <lane id="2/1to2/2_0" index="0" speed="13.90" length="189.60" shape="401.60,207.20 401.60,396.80"/>
    </edge>
    <edge id="2/2to1/2" from="2/2" to="1/2" priority="-1">
        <lane id="2/2to1/2_0" index="0" speed="13.90" length="189.60" shape="396.80,401.60 207.20,401.60"/>
    </edge>
    <edge id="2/2to2/1" from="2/2" to="2/1" priority="-1">
        <lane id="2/2to2/1_0" index="0" speed="13.90" length="189.60" shape="398.40,396.80 398.40,207.20"/>
    </edge>
    <edge id="E3" from="J4" to="J5" priority="-1">
        <lane id="E3_0" index="0" speed="13.89" length="20.17" shape="185.68,208.43 185.95,188.26"/>
    </edge>
    <edge id="E4" from="J5" to="J6" priority="-1">
        <lane id="E4_0" index="0" speed="13.89" length="24.15" shape="187.54,186.68 211.69,186.46"/>
    </edge>
    <edge id="E5" from="J6" to="J7" priority="-1">
        <lane id="E5_0" index="0" speed="13.89" length="22.22" shape="213.30,188.04 213.52,210.26"/>
    </edge>
    <edge id="E6" from="J7" to="J4" priority="-1">
        <lane id="E6_0" index="0" speed="13.89" length="24.71" shape="211.80,211.88 187.16,210.05"/>
    </edge>

    <tlLogic id="0/0" type="static" programID="0" offset="0">
        <phase duration="31" state="GG"/>
        <phase duration="4"  state="yy"/>
        <phase duration="31" state="GG"/>
        <phase duration="4"  state="yy"/>
    </tlLogic>
    <tlLogic id="0/1" type="static" programID="0" offset="0">
        <phase duration="31" state="GGGGGG"/>
        <phase duration="4"  state="yyyyyy"/>
        <phase duration="31" state="GGGGGG"/>
        <phase duration="4"  state="yyyyyy"/>
    </tlLogic>
    <tlLogic id="0/2" type="static" programID="0" offset="0">
        <phase duration="31" state="GG"/>
        <phase duration="4"  state="yy"/>
        <phase duration="31" state="GG"/>
        <phase duration="4"  state="yy"/>
    </tlLogic>
    <tlLogic id="1/0" type="static" programID="0" offset="0">
        <phase duration="42" state="GGGGGG"/>
        <phase duration="3"  state="yyyyyy"/>
        <phase duration="42" state="GGGGGG"/>
        <phase duration="3"  state="yyyyyy"/>
    </tlLogic>
    <tlLogic id="1/2" type="static" programID="0" offset="0">
        <phase duration="42" state="GGGGGGG"/>
        <phase duration="3"  state="yyyyyyy"/>
        <phase duration="42" state="GGGGGGG"/>
        <phase duration="3"  state="yyyyyyy"/>
    </tlLogic>
    <tlLogic id="2/0" type="static" programID="0" offset="0">
        <phase duration="31" state="GG"/>
        <phase duration="4"  state="yy"/>
        <phase duration="31" state="GG"/>
        <phase duration="4"  state="yy"/>
    </tlLogic>
    <tlLogic id="2/1" type="static" programID="0" offset="0">
        <phase duration="31" state="GGGGGG"/>
        <phase duration="4"  state="yyyyyy"/>
        <phase duration="31" state="GGGGGG"/>
        <phase duration="4"  state="yyyyyy"/>
    </tlLogic>
    <tlLogic id="2/2" type="static" programID="0" offset="0">
        <phase duration="31" state="GG"/>
        <phase duration="4"  state="yy"/>
        <phase duration="31" state="GG"/>
        <phase duration="4"  state="yy"/>
    </tlLogic>

    <junction id="0/0" type="traffic_light_unregulated" x="0.00" y="0.00" incLanes="0/1to0/0_0 1/0to0/0_0" intLanes=":0/0_0_0 :0/0_1_0" shape="-3.20,3.20 3.20,3.20 3.20,-3.20"/>
    <junction id="0/1" type="traffic_light_unregulated" x="0.00" y="200.00" incLanes="0/2to0/1_0 1/1to0/1_0 0/0to0/1_0" intLanes=":0/1_0_0 :0/1_1_0 :0/1_2_0 :0/1_3_0 :0/1_4_0 :0/1_5_0" shape="-3.20,207.20 3.20,207.20 7.20,203.20 7.20,196.80 3.20,192.80 -3.20,192.80"/>
    <junction id="0/2" type="traffic_light_unregulated" x="0.00" y="400.00" incLanes="1/2to0/2_0 0/1to0/2_0" intLanes=":0/2_0_0 :0/2_1_0" shape="3.20,403.20 3.20,396.80 -3.20,396.80"/>
    <junction id="1/0" type="traffic_light_unregulated" x="200.00" y="0.00" incLanes="1/1to1/0_0 1/1to1/0_1 1/1to1/0_2 2/0to1/0_0 0/0to1/0_0" intLanes=":1/0_0_0 :1/0_1_0 :1/0_2_0 :1/0_3_0 :1/0_4_0 :1/0_5_0" shape="190.40,7.20 203.20,7.20 207.20,3.20 207.20,-3.20 186.40,-3.20 186.40,3.20"/>
    <junction id="1/1" type="traffic_light_unregulated" x="200.00" y="200.00" incLanes="1/2to1/1_0 1/2to1/1_1 1/2to1/1_2 2/1to1/1_0 1/0to1/1_0 0/1to1/1_0" intLanes=":1/1_0_0 :1/1_1_0 :1/1_1_1 :1/1_1_2 :1/1_4_0 :1/1_5_0 :1/1_6_0 :1/1_7_0 :1/1_8_0 :1/1_9_0 :1/1_10_0 :1/1_11_0 :1/1_12_0 :1/1_13_0" shape="190.40,207.20 203.20,207.20 207.20,203.20 207.20,196.80 203.20,192.80 190.40,192.80 186.40,196.80 186.40,203.20"/>
    <junction id="1/2" type="traffic_light_unregulated" x="200.00" y="400.00" incLanes="2/2to1/2_0 1/1to1/2_0 0/2to1/2_0" intLanes=":1/2_0_0 :1/2_1_0 :1/2_1_1 :1/2_3_0 :1/2_4_0 :1/2_5_0 :1/2_6_0" shape="207.20,403.20 207.20,396.80 203.20,392.80 190.40,392.80 186.40,396.80 186.40,403.20"/>
    <junction id="2/0" type="traffic_light_unregulated" x="400.00" y="0.00" incLanes="2/1to2/0_0 1/0to2/0_0" intLanes=":2/0_0_0 :2/0_1_0" shape="396.80,3.20 403.20,3.20 396.80,-3.20"/>
    <junction id="2/1" type="traffic_light_unregulated" x="400.00" y="200.00" incLanes="2/2to2/1_0 2/0to2/1_0 1/1to2/1_0" intLanes=":2/1_0_0 :2/1_1_0 :2/1_2_0 :2/1_3_0 :2/1_4_0 :2/1_5_0" shape="396.80,207.20 403.20,207.20 403.20,192.80 396.80,192.80 392.80,196.80 392.80,203.20"/>
    <junction id="2/2" type="traffic_light_unregulated" x="400.00" y="400.00" incLanes="2/1to2/2_0 1/2to2/2_0" intLanes=":2/2_0_0 :2/2_1_0" shape="403.20,396.80 396.80,396.80 396.80,403.20"/>
    <junction id="J4" type="priority" x="187.28" y="208.45" incLanes="E6_0" intLanes=":J4_0_0" shape="187.04,211.64 187.28,208.45 184.08,208.41">
        <request index="0" response="0" foes="0" cont="0"/>
    </junction>
    <junction id="J5" type="priority" x="187.55" y="188.28" incLanes="E3_0" intLanes=":J5_0_0" shape="187.55,188.28 187.52,185.08 184.35,188.24">
        <request index="0" response="0" foes="0" cont="0"/>
    </junction>
    <junction id="J6" type="priority" x="211.70" y="188.06" incLanes="E4_0" intLanes=":J6_0_0" shape="211.70,188.06 214.90,188.03 211.67,184.86">
        <request index="0" response="0" foes="0" cont="0"/>
    </junction>
    <junction id="J7" type="priority" x="211.92" y="210.28" incLanes="E5_0" intLanes=":J7_0_0" shape="215.12,210.25 211.92,210.28 211.68,213.47">
        <request index="0" response="0" foes="0" cont="0"/>
    </junction>

    <connection from="0/0to0/1" to="0/1to1/1" fromLane="0" toLane="0" via=":0/1_4_0" tl="0/1" linkIndex="4" dir="r" state="O"/>
    <connection from="0/0to0/1" to="0/1to0/2" fromLane="0" toLane="0" via=":0/1_5_0" tl="0/1" linkIndex="5" dir="s" state="O"/>
    <connection from="0/0to1/0" to="1/0to2/0" fromLane="0" toLane="0" via=":1/0_4_0" tl="1/0" linkIndex="4" dir="s" state="O"/>
    <connection from="0/0to1/0" to="1/0to1/1" fromLane="0" toLane="0" via=":1/0_5_0" tl="1/0" linkIndex="5" dir="l" state="O"/>
    <connection from="0/1to0/0" to="0/0to1/0" fromLane="0" toLane="0" via=":0/0_0_0" tl="0/0" linkIndex="0" dir="l" state="O"/>
    <connection from="0/1to0/2" to="0/2to1/2" fromLane="0" toLane="0" via=":0/2_1_0" tl="0/2" linkIndex="1" dir="r" state="O"/>
    <connection from="0/1to1/1" to="1/1to1/0" fromLane="0" toLane="0" via=":1/1_11_0" dir="r" state="M"/>
    <connection from="0/1to1/1" to="1/1to2/1" fromLane="0" toLane="0" via=":1/1_12_0" dir="s" state="M"/>
    <connection from="0/1to1/1" to="1/1to1/2" fromLane="0" toLane="0" via=":1/1_13_0" dir="l" state="M"/>
    <connection from="0/2to0/1" to="0/1to0/0" fromLane="0" toLane="0" via=":0/1_0_0" tl="0/1" linkIndex="0" dir="s" state="O"/>
    <connection from="0/2to0/1" to="0/1to1/1" fromLane="0" toLane="0" via=":0/1_1_0" tl="0/1" linkIndex="1" dir="l" state="O"/>
    <connection from="0/2to1/2" to="1/2to1/1" fromLane="0" toLane="0" via=":1/2_5_0" tl="1/2" linkIndex="5" dir="r" state="O"/>
    <connection from="0/2to1/2" to="1/2to2/2" fromLane="0" toLane="0" via=":1/2_6_0" tl="1/2" linkIndex="6" dir="s" state="O"/>
    <connection from="1/0to0/0" to="0/0to0/1" fromLane="0" toLane="0" via=":0/0_1_0" tl="0/0" linkIndex="1" dir="r" state="O"/>
    <connection from="1/0to1/1" to="1/1to2/1" fromLane="0" toLane="0" via=":1/1_8_0" dir="r" state="M"/>
    <connection from="1/0to1/1" to="1/1to1/2" fromLane="0" toLane="0" via=":1/1_9_0" dir="s" state="M"/>
    <connection from="1/0to1/1" to="1/1to0/1" fromLane="0" toLane="0" via=":1/1_10_0" dir="l" state="M"/>
    <connection from="1/0to2/0" to="2/0to2/1" fromLane="0" toLane="0" via=":2/0_1_0" tl="2/0" linkIndex="1" dir="l" state="O"/>
    <connection from="1/1to0/1" to="0/1to0/2" fromLane="0" toLane="0" via=":0/1_2_0" tl="0/1" linkIndex="2" dir="r" state="O"/>
    <connection from="1/1to0/1" to="0/1to0/0" fromLane="0" toLane="0" via=":0/1_3_0" tl="0/1" linkIndex="3" dir="l" state="O"/>
    <connection from="1/1to1/0" to="1/0to0/0" fromLane="0" toLane="0" via=":1/0_0_0" tl="1/0" linkIndex="0" dir="r" state="O"/>
    <connection from="1/1to1/0" to="1/0to2/0" fromLane="2" toLane="0" via=":1/0_1_0" tl="1/0" linkIndex="1" dir="l" state="O"/>
    <connection from="1/1to1/2" to="1/2to2/2" fromLane="0" toLane="0" via=":1/2_3_0" tl="1/2" linkIndex="3" dir="r" state="O"/>
    <connection from="1/1to1/2" to="1/2to0/2" fromLane="0" toLane="0" via=":1/2_4_0" tl="1/2" linkIndex="4" dir="l" state="O"/>
    <connection from="1/1to2/1" to="2/1to2/0" fromLane="0" toLane="0" via=":2/1_4_0" tl="2/1" linkIndex="4" dir="r" state="O"/>
    <connection from="1/1to2/1" to="2/1to2/2" fromLane="0" toLane="0" via=":2/1_5_0" tl="2/1" linkIndex="5" dir="l" state="O"/>
    <connection from="1/2to0/2" to="0/2to0/1" fromLane="0" toLane="0" via=":0/2_0_0" tl="0/2" linkIndex="0" dir="l" state="O"/>
    <connection from="1/2to1/1" to="1/1to0/1" fromLane="0" toLane="0" via=":1/1_0_0" dir="r" state="M"/>
    <connection from="1/2to1/1" to="1/1to1/0" fromLane="0" toLane="0" via=":1/1_1_0" dir="s" state="M"/>
    <connection from="1/2to1/1" to="1/1to1/0" fromLane="1" toLane="1" via=":1/1_1_1" dir="s" state="M"/>
    <connection from="1/2to1/1" to="1/1to1/0" fromLane="2" toLane="2" via=":1/1_1_2" dir="s" state="M"/>
    <connection from="1/2to1/1" to="1/1to2/1" fromLane="2" toLane="0" via=":1/1_4_0" dir="l" state="M"/>
    <connection from="1/2to2/2" to="2/2to2/1" fromLane="0" toLane="0" via=":2/2_1_0" tl="2/2" linkIndex="1" dir="r" state="O"/>
    <connection from="2/0to1/0" to="1/0to1/1" fromLane="0" toLane="0" via=":1/0_2_0" tl="1/0" linkIndex="2" dir="r" state="O"/>
    <connection from="2/0to1/0" to="1/0to0/0" fromLane="0" toLane="0" via=":1/0_3_0" tl="1/0" linkIndex="3" dir="s" state="O"/>
    <connection from="2/0to2/1" to="2/1to2/2" fromLane="0" toLane="0" via=":2/1_2_0" tl="2/1" linkIndex="2" dir="s" state="O"/>
    <connection from="2/0to2/1" to="2/1to1/1" fromLane="0" toLane="0" via=":2/1_3_0" tl="2/1" linkIndex="3" dir="l" state="O"/>
    <connection from="2/1to1/1" to="1/1to1/2" fromLane="0" toLane="0" via=":1/1_5_0" dir="r" state="M"/>
    <connection from="2/1to1/1" to="1/1to0/1" fromLane="0" toLane="0" via=":1/1_6_0" dir="s" state="M"/>
    <connection from="2/1to1/1" to="1/1to1/0" fromLane="0" toLane="2" via=":1/1_7_0" dir="l" state="M"/>
    <connection from="2/1to2/0" to="2/0to1/0" fromLane="0" toLane="0" via=":2/0_0_0" tl="2/0" linkIndex="0" dir="r" state="O"/>
    <connection from="2/1to2/2" to="2/2to1/2" fromLane="0" toLane="0" via=":2/2_0_0" tl="2/2" linkIndex="0" dir="l" state="O"/>
    <connection from="2/2to1/2" to="1/2to0/2" fromLane="0" toLane="0" via=":1/2_0_0" tl="1/2" linkIndex="0" dir="s" state="O"/>
    <connection from="2/2to1/2" to="1/2to1/1" fromLane="0" toLane="1" via=":1/2_1_0" tl="1/2" linkIndex="1" dir="l" state="O"/>
    <connection from="2/2to1/2" to="1/2to1/1" fromLane="0" toLane="2" via=":1/2_1_1" tl="1/2" linkIndex="2" dir="l" state="O"/>
    <connection from="2/2to2/1" to="2/1to1/1" fromLane="0" toLane="0" via=":2/1_0_0" tl="2/1" linkIndex="0" dir="r" state="O"/>
    <connection from="2/2to2/1" to="2/1to2/0" fromLane="0" toLane="0" via=":2/1_1_0" tl="2/1" linkIndex="1" dir="s" state="O"/>
    <connection from="E3" to="E4" fromLane="0" toLane="0" via=":J5_0_0" dir="l" state="M"/>
    <connection from="E4" to="E5" fromLane="0" toLane="0" via=":J6_0_0" dir="l" state="M"/>
    <connection from="E5" to="E6" fromLane="0" toLane="0" via=":J7_0_0" dir="l" state="M"/>
    <connection from="E6" to="E3" fromLane="0" toLane="0" via=":J4_0_0" dir="l" state="M"/>

    <connection from=":0/0_0" to="0/0to1/0" fromLane="0" toLane="0" dir="l" state="M"/>
    <connection from=":0/0_1" to="0/0to0/1" fromLane="0" toLane="0" dir="r" state="M"/>
    <connection from=":0/1_0" to="0/1to0/0" fromLane="0" toLane="0" dir="s" state="M"/>
    <connection from=":0/1_1" to="0/1to1/1" fromLane="0" toLane="0" dir="l" state="M"/>
    <connection from=":0/1_2" to="0/1to0/2" fromLane="0" toLane="0" dir="r" state="M"/>
    <connection from=":0/1_3" to="0/1to0/0" fromLane="0" toLane="0" dir="l" state="M"/>
    <connection from=":0/1_4" to="0/1to1/1" fromLane="0" toLane="0" dir="r" state="M"/>
    <connection from=":0/1_5" to="0/1to0/2" fromLane="0" toLane="0" dir="s" state="M"/>
    <connection from=":0/2_0" to="0/2to0/1" fromLane="0" toLane="0" dir="l" state="M"/>
    <connection from=":0/2_1" to="0/2to1/2" fromLane="0" toLane="0" dir="r" state="M"/>
    <connection from=":1/0_0" to="1/0to0/0" fromLane="0" toLane="0" dir="r" state="M"/>
    <connection from=":1/0_1" to="1/0to2/0" fromLane="0" toLane="0" dir="l" state="M"/>
    <connection from=":1/0_2" to="1/0to1/1" fromLane="0" toLane="0" dir="r" state="M"/>
    <connection from=":1/0_3" to="1/0to0/0" fromLane="0" toLane="0" dir="s" state="M"/>
    <connection from=":1/0_4" to="1/0to2/0" fromLane="0" toLane="0" dir="s" state="M"/>
    <connection from=":1/0_5" to="1/0to1/1" fromLane="0" toLane="0" dir="l" state="M"/>
    <connection from=":1/1_0" to="1/1to0/1" fromLane="0" toLane="0" dir="r" state="M"/>
    <connection from=":1/1_1" to="1/1to1/0" fromLane="0" toLane="0" dir="s" state="M"/>
    <connection from=":1/1_1" to="1/1to1/0" fromLane="1" toLane="1" dir="s" state="M"/>
    <connection from=":1/1_1" to="1/1to1/0" fromLane="2" toLane="2" dir="s" state="M"/>
    <connection from=":1/1_4" to="1/1to2/1" fromLane="0" toLane="0" dir="l" state="M"/>
    <connection from=":1/1_5" to="1/1to1/2" fromLane="0" toLane="0" dir="r" state="M"/>
    <connection from=":1/1_6" to="1/1to0/1" fromLane="0" toLane="0" dir="s" state="M"/>
    <connection from=":1/1_7" to="1/1to1/0" fromLane="0" toLane="2" dir="l" state="M"/>
    <connection from=":1/1_8" to="1/1to2/1" fromLane="0" toLane="0" dir="r" state="M"/>
    <connection from=":1/1_9" to="1/1to1/2" fromLane="0" toLane="0" dir="s" state="M"/>
    <connection from=":1/1_10" to="1/1to0/1" fromLane="0" toLane="0" dir="l" state="M"/>
    <connection from=":1/1_11" to="1/1to1/0" fromLane="0" toLane="0" dir="r" state="M"/>
    <connection from=":1/1_12" to="1/1to2/1" fromLane="0" toLane="0" dir="s" state="M"/>
    <connection from=":1/1_13" to="1/1to1/2" fromLane="0" toLane="0" dir="l" state="M"/>
    <connection from=":1/2_0" to="1/2to0/2" fromLane="0" toLane="0" dir="s" state="M"/>