<?xml version="1.0" encoding="UTF-8"?>

<!-- generated on 2022-12-06 14:49:21 by Eclipse SUMO netedit Version v1_13_0+0497-ea965e7841c
-->

<routes xmlns:xsi="http://www.w3.org/2001/XMLSchema-instance" xsi:noNamespaceSchemaLocation="http://sumo.dlr.de/xsd/routes_file.xsd">
    <!-- VTypes -->
    <vType id="car" length="0.01" minGap="0.00" maxSpeed="13.50" accel="4.8" sigma="1"/>
    <vType id="rsucar" length="0.01" minGap="0.00" maxSpeed="0.10" guiShape="passenger" latAlignment="right" accel="0.1" decel="0.1" sigma="1.0"/>
    <!-- Routes -->
    <route id="1" edges="1/0to1/1 1/1to1/2" color="0,0,0,0"/>
    <route id="2" edges="1/2to1/1 1/1to1/0" color="0,0,0,0"/>
    <route id="3" edges="2/1to1/1 1/1to0/1" color="0,0,0,0"/>
    <route id="4" edges="0/1to1/1 1/1to2/1" color="0,0,0,0"/>
    <route id="r_0" edges="E3 E4 E5 E6 E3" color="0,0,0,0"/>
    <!-- Vehicles, persons and containers (sorted by depart) -->
    <vehicle id="0" type="rsucar" depart="0.00" route="r_0"/>
    <vehicle id="1" type="car" depart="0.00" route="2" departSpeed="max"/>
    <vehicle id="10" type="car" depart="0.00" route="2" departSpeed="max"/>
    <vehicle id="100" type="car" depart="0.00" route="2" departSpeed="max"/>
    <vehicle id="101" type="car" depart="0.00" route="2" departSpeed="max"/>
    <vehicle id="102" type="car" depart="0.00" route="2" departSpeed="max"/>
    <vehicle id="103" type="car" depart="0.00" route="2" departSpeed="max"/>
    <vehicle id="104" type="car" depart="0.00" route="2" departSpeed="max"/>
    <vehicle id="105" type="car" depart="0.00" route="2" departSpeed="max"/>
    <vehicle id="106" type="car" depart="0.00" route="2" departSpeed="max"/>
    <vehicle id="107" type="car" depart="0.00" route="2" departSpeed="max"/>
    <vehicle id="108" type="car" depart="0.00" route="2" departSpeed="max"/>
    <vehicle id="109" type="car" depart="0.00" route="2" departSpeed="max"/>
    <vehicle id="11" type="car" depart="0.00" route="2" departSpeed="max"/>
    <vehicle id="110" type="car" depart="0.00" route="2" departSpeed="max"/>
    <vehicle id="111" type="car" depart="0.00" route="2" departSpeed="max"/>
    <vehicle id="112" type="car" depart="0.00" route="2" departSpeed="max"/>
    <vehicle id="113" type="car" depart="0.00" route="2" departSpeed="max"/>
    <vehicle id="114" type="car" depart="0.00" route="2" departSpeed="max"/>
    <vehicle id="115" type="car" depart="0.00" route="2" departSpeed="max"/>
    <vehicle id="116" type="car" depart="0.00" route="2" departSpeed="max"/>
    <vehicle id="117" type="car" depart="0.00" route="2" departSpeed="max"/>
    <vehicle id="118" type="car" depart="0.00" route="2" departSpeed="max"/>
    <vehicle id="119" type="car" depart="0.00" route="2" departSpeed="max"/>
    <vehicle id="12" type="car" depart="0.00" route="2" departSpeed="max"/>
    <vehicle id="120" type="car" depart="0.00" route="2" departSpeed="max"/>
    <vehicle id="121" type="car" depart="0.00" route="2" departSpeed="max"/>
    <vehicle id="122" type="car" depart="0.00" route="2" departSpeed="max"/>
    <vehicle id="123" type="car" depart="0.00" route="2" departSpeed="max"/>
    <vehicle id="124" type="car" depart="0.00" route="2" departSpeed="max"/>
    <vehicle id="125" type="car" depart="0.00" route="2" departSpeed="max"/>
    <vehicle id="126" type="car" depart="0.00" route="2" departSpeed="max"/>
    <vehicle id="127" type="car" depart="0.00" route="2" departSpeed="max"/>
    <vehicle id="128" type="car" depart="0.00" route="2" departSpeed="max"/>
    <vehicle id="129" type="car" depart="0.00" route="2" departSpeed="max"/>
    <vehicle id="13" type="car" depart="0.00" route="2" departSpeed="max"/>
    <vehicle id="130" type="car" depart="0.00" route="2" departSpeed="max"/>
    <vehicle id="131" type="car" depart="0.00" route="2" departSpeed="max"/>
    <vehicle id="132" type="car" depart="0.00" route="2" departSpeed="max"/>
    <vehicle id="133" type="car" depart="0.00" route="2" departSpeed="max"/>
    <vehicle id="134" type="car" depart="0.00" route="2" departSpeed="max"/>
    <vehicle id="135" type="car" depart="0.00" route="2" departSpeed="max"/>
    <vehicle id="136" type="car" depart="0.00" route="2" departSpeed="max"/>
    <vehicle id="137" type="car" depart="0.00" route="2" departSpeed="max"/>
    <vehicle id="138" type="car" depart="0.00" route="2" departSpeed="max"/>
    <vehicle id="139" type="car" depart="0.00" route="2" departSpeed="max"/>
    <vehicle id="14" type="car" depart="0.00" route="2" departSpeed="max"/>
    <vehicle id="140" type="car" depart="0.00" route="2" departSpeed="max"/>
    <vehicle id="141" type="car" depart="0.00" route="2" departSpeed="max"/>
    <vehicle id="142" type="car" depart="0.00" route="2" departSpeed="max"/>
    <vehicle id="143" type="car" depart="0.00" route="2" departSpeed="max"/>
    <vehicle id="144" type="car" depart="0.00" route="2" departSpeed="max"/>
    <vehicle id="145" type="car" depart="0.00" route="2" departSpeed="max"/>
    <vehicle id="146" type="car" depart="0.00" route="2" departSpeed="max"/>
    <vehicle id="147" type="car" depart="0.00" route="2" departSpeed="max"/>
    <vehicle id="148" type="car" depart="0.00" route="2" departSpeed="max"/>
    <vehicle id="149" type="car" depart="0.00" route="2" departSpeed="max"/>
    <vehicle id="15" type="car" depart="0.00" route="2" departSpeed="max"/>
    <vehicle id="150" type="car" depart="0.00" route="2" departSpeed="max"/>
    <vehicle id="151" type="car" depart="0.00" route="2" departSpeed="max"/>
    <vehicle id="152" type="car" depart="0.00" route="2" departSpeed="max"/>
    <vehicle id="153" type="car" depart="0.00" route="2" departSpeed="max"/>
    <vehicle id="154" type="car" depart="0.00" route="2" departSpeed="max"/>
    <vehicle id="155" type="car" depart="0.00" route="2" departSpeed="max"/>
    <vehicle id="156" type="car" depart="0.00" route="2" departSpeed="max"/>
    <vehicle id="157" type="car" depart="0.00" route="2" departSpeed="max"/>
    <vehicle id="158" type="car" depart="0.00" route="2" departSpeed="max"/>
    <vehicle id="159" type="car" depart="0.00" route="2" departSpeed="max"/>
    <vehicle id="16" type="car" depart="0.00" route="2" departSpeed="max"/>
    <vehicle id="160" type="car" depart="0.00" route="2" departSpeed="max"/>
    <vehicle id="161" type="car" depart="0.00" route="2" departSpeed="max"/>
    <vehicle id="162" type="car" depart="0.00" route="2" departSpeed="max"/>
    <vehicle id="163" type="car" depart="0.00" route="2" departSpeed="max"/>
    <vehicle id="164" type="car" depart="0.00" route="2" departSpeed="max"/>
    <vehicle id="165" type="car" depart="0.00" route="2" departSpeed="max"/>
    <vehicle id="166" type="car" depart="0.00" route="2" departSpeed="max"/>
    <vehicle id="167" type="car" depart="0.00" route="2" departSpeed="max"/>
    <vehicle id="168" type="car" depart="0.00" route="2" departSpeed="max"/>
    <vehicle id="169" type="car" depart="0.00" route="2" departSpeed="max"/>
    <vehicle id="17" type="car" depart="0.00" route="2" departSpeed="max"/>
    <vehicle id="170" type="car" depart="0.00" route="2" departSpeed="max"/>
    <vehicle id="171" type="car" depart="0.00" route="2" departSpeed="max"/>
    <vehicle id="172" type="car" depart="0.00" route="2" departSpeed="max"/>
    <vehicle id="173" type="car" depart="0.00" route="2" departSpeed="max"/>
    <vehicle id="174" type="car" depart="0.00" route="2" departSpeed="max"/>
    <vehicle id="175" type="car" depart="0.00" route="2" departSpeed="max"/>
    <vehicle id="176" type="car" depart="0.00" route="2" departSpeed="max"/>
    <vehicle id="177" type="car" depart="0.00" route="2" departSpeed="max"/>
    <vehicle id="178" type="car" depart="0.00" route="2" departSpeed="max"/>
    <vehicle id="179" type="car" depart="0.00" route="2" departSpeed="max"/>
    <vehicle id="18" type="car" depart="0.00" route="2" departSpeed="max"/>
    <vehicle id="180" type="car" depart="0.00" route="2" departSpeed="max"/>
    <vehicle id="181" type="car" depart="0.00" route="2" departSpeed="max"/>
    <vehicle id="182" type="car" depart="0.00" route="2" departSpeed="max"/>
    <vehicle id="183" type="car" depart="0.00" route="2" departSpeed="max"/>
    <vehicle id="184" type="car" depart="0.00" route="2" departSpeed="max"/>
    <vehicle id="185" type="car" depart="0.00" route="2" departSpeed="max"/>
    <vehicle id="186" type="car" depart="0.00" route="2" departSpeed="max"/>
    <vehicle id="187" type="car" depart="0.00" route="2" departSpeed="max"/>
    <vehicle id="188" type="car" depart="0.00" route="2" departSpeed="max"/>
    <vehicle id="189" type="car" depart="0.00" route="2" departSpeed="max"/>
    <vehicle id="19" type="car" depart="0.00" route="2" departSpeed="max"/>
    <vehicle id="190" type="car" depart="0.00" route="2" departSpeed="max"/>
    <vehicle id="191" type="car" depart="0.00" route="2" departSpeed="max"/>
    <vehicle id="192" type="car" depart="0.00" route="2" departSpeed="max"/>
    <vehicle id="193" type="car" depart="0.00" route="2" departSpeed="max"/>
    <vehicle id="194" type="car" depart="0.00" route="2" departSpeed="max"/>
    <vehicle id="195" type="car" depart="0.00" route="2" departSpeed="max"/>
    <vehicle id="196" type="car" depart="0.00" route="2" departSpeed="max"/>
    <vehicle id="197" type="car" depart="0.00" route="2" departSpeed="max"/>
    <vehicle id="198" type="car" depart="0.00" route="2" departSpeed="max"/>
    <vehicle id="199" type="car" depart="0.00" route="2" departSpeed="max"/>
    <vehicle id="2" type="car" depart="0.00" route="2" departSpeed="max"/>
    <vehicle id="20" type="car" depart="0.00" route="2" departSpeed="max"/>
    <vehicle id="200" type="car" depart="0.00" route="2" departSpeed="max"/>
    <vehicle id="201" type="car" depart="0.00" route="2" departSpeed="max"/>
    <vehicle id="202" type="car" depart="0.00" route="2" departSpeed="max"/>
    <vehicle id="203" type="car" depart="0.00" route="2" departSpeed="max"/>
    <vehicle id="204" type="car" depart="0.00" route="2" departSpeed="max"/>
    <vehicle id="205" type="car" depart="0.00" route="2" departSpeed="max"/>
    <vehicle id="206" type="car" depart="0.00" route="2" departSpeed="max"/>
    <vehicle id="207" type="car" depart="0.00" route="2" departSpeed="max"/>
    <vehicle id="208" type="car" depart="0.00" route="2" departSpeed="max"/>
    <vehicle id="209" type="car" depart="0.00" route="2" departSpeed="max"/>
    <vehicle id="21" type="car" depart="0.00" route="2" departSpeed="max"/>
    <vehicle id="210" type="car" depart="0.00" route="2" departSpeed="max"/>
    <vehicle id="211" type="car" depart="0.00" route="2" departSpeed="max"/>
    <vehicle id="212" type="car" depart="0.00" route="2" departSpeed="max"/>
    <vehicle id="213" type="car" depart="0.00" route="2" departSpeed="max"/>
    <vehicle id="214" type="car" depart="0.00" route="2" departSpeed="max"/>
    <vehicle id="215" type="car" depart="0.00" route="2" departSpeed="max"/>
    <vehicle id="216" type="car" depart="0.00" route="2" departSpeed="max"/>
    <vehicle id="217" type="car" depart="0.00" route="2" departSpeed="max"/>
    <vehicle id="218" type="car" depart="0.00" route="2" departSpeed="max"/>
    <vehicle id="219" type="car" depart="0.00" route="2" departSpeed="max"/>
    <vehicle id="22" type="car" depart="0.00" route="2" departSpeed="max"/>
    <vehicle id="220" type="car" depart="0.00" route="2" departSpeed="max"/>
    <vehicle id="221" type="car" depart="0.00" route="2" departSpeed="max"/>
    <vehicle id="222" type="car" depart="0.00" route="2" departSpeed="max"/>
    <vehicle id="223" type="car" depart="0.00" route="2" departSpeed="max"/>
    <vehicle id="224" type="car" depart="0.00" route="2" departSpeed="max"/>
    <vehicle id="225" type="car" depart="0.00" route="2" departSpeed="max"/>
    <vehicle id="226" type="car" depart="0.00" route="2" departSpeed="max"/>
    <vehicle id="227" type="car" depart="0.00" route="2" departSpeed="max"/>
    <vehicle id="228" type="car" depart="0.00" route="2" departSpeed="max"/>
    <vehicle id="229" type="car" depart="0.00" route="2" departSpeed="max"/>
    <vehicle id="23" type="car" depart="0.00" route="2" departSpeed="max"/>
    <vehicle id="230" type="car" depart="0.00" route="2" departSpeed="max"/>
    <vehicle id="231" type="car" depart="0.00" route="2" departSpeed="max"/>
    <vehicle id="232" type="car" depart="0.00" route="2" departSpeed="max"/>
    <vehicle id="233" type="car" depart="0.00" route="2" departSpeed="max"/>
    <vehicle id="234" type="car" depart="0.00" route="2" departSpeed="max"/>
    <vehicle id="235" type="car" depart="0.00" route="2" departSpeed="max"/>
    <vehicle id="236" type="car" depart="0.00" route="2" departSpeed="max"/>
    <vehicle id="237" type="car" depart="0.00" route="2" departSpeed="max"/>
    <vehicle id="238" type="car" depart="0.00" route="2" departSpeed="max"/>
    <vehicle id="239" type="car" depart="0.00" route="2" departSpeed="max"/>
    <vehicle id="24" type="car" depart="0.00" route="2" departSpeed="max"/>
    <vehicle id="240" type="car" depart="0.00" route="2" departSpeed="max"/>
    <vehicle id="241" type="car" depart="0.00" route="2" departSpeed="max"/>
    <vehicle id="242" type="car" depart="0.00" route="2" departSpeed="max"/>
    <vehicle id="243" type="car" depart="0.00" route="2" departSpeed="max"/>
    <vehicle id="244" type="car" depart="0.00" departSpeed="max" route="2"/>
    <vehicle id="245" type="car" depart="0.00" route="2" departSpeed="max"/>
    <vehicle id="246" type="car" depart="0.00" route="2" departSpeed="max"/>
    <vehicle id="247" type="car" depart="0.00" route="2" departSpeed="max"/>
    <vehicle id="248" type="car" depart="0.00" route="2" departSpeed="max"/>
    <vehicle id="249" type="car" depart="0.00" route="2" departSpeed="max"/>
    <vehicle id="25" type="car" depart="0.00" route="2" departSpeed="max"/>
    <vehicle id="250" type="car" depart="0.00" route="2" departSpeed="max"/>
    <vehicle id="251" type="car" depart="0.00" route="2" departSpeed="max"/>
    <vehicle id="252" type="car" depart="0.00" route="2" departSpeed="max"/>
    <vehicle id="253" type="car" depart="0.00" route="2" departSpeed="max"/>
    <vehicle id="254" type="car" depart="0.00" route="2" departSpeed="max"/>
    <vehicle id="255" type="car" depart="0.00" route="2" departSpeed="max"/>
    <vehicle id="256" type="car" depart="0.00" route="2" departSpeed="max"/>
    <vehicle id="257" type="car" depart="0.00" route="2" departSpeed="max"/>
    <vehicle id="258" type="car" depart="0.00" route="2" departSpeed="max"/>
    <vehicle id="259" type="car" depart="0.00" route="2" departSpeed="max"/>
    <vehicle id="26" type="car" depart="0.00" route="2" departSpeed="max"/>
    <vehicle id="260" type="car" depart="0.00" route="2" departSpeed="max"/>
    <vehicle id="261" type="car" depart="0.00" route="2" departSpeed="max"/>
    <vehicle id="262" type="car" depart="0.00" route="2" departSpeed="max"/>
    <vehicle id="263" type="car" depart="0.00" route="2" departSpeed="max"/>
    <vehicle id="264" type="car" depart="0.00" route="2" departSpeed="max"/>
    <vehicle id="265" type="car" depart="0.00" route="2" departSpeed="max"/>
    <vehicle id="266" type="car" depart="0.00" route="2" departSpeed="max"/>
    <vehicle id="267" type="car" depart="0.00" route="2" departSpeed="max"/>
    <vehicle id="268" type="car" depart="0.00" route="2" departSpeed="max"/>
    <vehicle id="269" type="car" depart="0.00" route="2" departSpeed="max"/>
    <vehicle id="27" type="car" depart="0.00" route="2" departSpeed="max"/>
    <vehicle id="270" type="car" depart="0.00" route="2" departSpeed="max"/>
    <vehicle id="271" type="car" depart="0.00" route="2" departSpeed="max"/>
    <vehicle id="272" type="car" depart="0.00" route="2" departSpeed="max"/>
    <vehicle id="273" type="car" depart="0.00" route="2" departSpeed="max"/>
    <vehicle id="274" type="car" depart="0.00" route="2" departSpeed="max"/>
    <vehicle id="275" type="car" depart="0.00" route="2" departSpeed="max"/>
    <vehicle id="276" type="car" depart="0.00" route="2" departSpeed="max"/>
    <vehicle id="277" type="car" depart="0.00" route="2" departSpeed="max"/>
    <vehicle id="278" type="car" depart="0.00" route="2" departSpeed="max"/>
    <vehicle id="279" type="car" depart="0.00" route="2" departSpeed="max"/>
    <vehicle id="28" type="car" depart="0.00" route="2" departSpeed="max"/>
    <vehicle id="280" type="car" depart="0.00" route="2" departSpeed="max"/>
    <vehicle id="281" type="car" depart="0.00" route="2" departSpeed="max"/>
    <vehicle id="282" type="car" depart="0.00" route="2" departSpeed="max"/>
    <vehicle id="283" type="car" depart="0.00" route="2" departSpeed="max"/>
    <vehicle id="284" type="car" depart="0.00" route="2" departSpeed="max"/>
    <vehicle id="285" type="car" depart="0.00" route="2" departSpeed="max"/>
    <vehicle id="286" type="car" depart="0.00" route="2" departSpeed="max"/>
    <vehicle id="287" type="car" depart="0.00" route="2" departSpeed="max"/>
    <vehicle id="288" type="car" depart="0.00" route="2" departSpeed="max"/>
    <vehicle id="289" type="car" depart="0.00" route="2" departSpeed="max"/>
    <vehicle id="29" type="car" depart="0.00" route="2" departSpeed="max"/>
    <vehicle id="290" type="car" depart="0.00" route="2" departSpeed="max"/>
    <vehicle id="291" type="car" depart="0.00" route="2" departSpeed="max"/>
    <vehicle id="292" type="car" depart="0.00" route="2" departSpeed="max"/>
    <vehicle id="293" type="car" depart="0.00" route="2" departSpeed="max"/>
    <vehicle id="294" type="car" depart="0.00" route="2" departSpeed="max"/>
    <vehicle id="295" type="car" depart="0.00" route="2" departSpeed="max"/>
    <vehicle id="296" type="car" depart="0.00" route="2" departSpeed="max"/>
    <vehicle id="297" type="car" depart="0.00" route="2" departSpeed="max"/>
    <vehicle id="298" type="car" depart="0.00" route="2" departSpeed="max"/>
    <vehicle id="299" type="car" depart="0.00" route="2" departSpeed="max"/>
    <vehicle id="3" type="car" depart="0.00" route="2" departSpeed="max"/>
    <vehicle id="30" type="car" depart="0.00" route="2" departSpeed="max"/>
    <vehicle id="300" type="car" depart="0.00" route="2" departSpeed="max"/>
    <vehicle id="301" type="car" depart="0.00" route="2" departSpeed="max"/>
    <vehicle id="302" type="car" depart="0.00" route="2" departSpeed="max"/>
    <vehicle id="303" type="car" depart="0.00" route="2" departSpeed="max"/>
    <vehicle id="304" type="car" depart="0.00" route="2" departSpeed="max"/>
    <vehicle id="305" type="car" depart="0.00" route="2" departSpeed="max"/>
    <vehicle id="306" type="car" depart="0.00" route="2" departSpeed="max"/>
    <vehicle id="307" type="car" depart="0.00" route="2" departSpeed="max"/>
    <vehicle id="308" type="car" depart="0.00" route="2" departSpeed="max"/>
    <vehicle id="309" type="car" depart="0.00" route="2" departSpeed="max"/>
    <vehicle id="31" type="car" depart="0.00" route="2" departSpeed="max"/>
    <vehicle id="310" type="car" depart="0.00" route="2" departSpeed="max"/>
    <vehicle id="311" type="car" depart="0.00" route="2" departSpeed="max"/>
    <vehicle id="312" type="car" depart="0.00" route="2" departSpeed="max"/>
    <vehicle id="313" type="car" depart="0.00" route="2" departSpeed="max"/>
    <vehicle id="314" type="car" depart="0.00" route="2" departSpeed="max"/>
    <vehicle id="315" type="car" depart="0.00" route="2" departSpeed="max"/>
    <vehicle id="316" type="car" depart="0.00" route="2" departSpeed="max"/>
    <vehicle id="317" type="car" depart="0.00" route="2" departSpeed="max"/>
    <vehicle id="318" type="car" depart="0.00" route="2" departSpeed="max"/>
    <vehicle id="319" type="car" depart="0.00" route="2" departSpeed="max"/>
    <vehicle id="32" type="car" depart="0.00" route="2" departSpeed="max"/>
    <vehicle id="320" type="car" depart="0.00" route="2" departSpeed="max"/>
    <vehicle id="321" type="car" depart="0.00" route="2" departSpeed="max"/>
    <vehicle id="322" type="car" depart="0.00" route="2" departSpeed="max"/>
    <vehicle id="323" type="car" depart="0.00" route="2" departSpeed="max"/>
    <vehicle id="324" type="car" depart="0.00" route="2" departSpeed="max"/>
    <vehicle id="325" type="car" depart="0.00" route="2" departSpeed="max"/>
    <vehicle id="326" type="car" depart="0.00" route="2" departSpeed="max"/>
    <vehicle id="327" type="car" depart="0.00" route="2" departSpeed="max"/>
    <vehicle id="328" type="car" depart="0.00" route="2" departSpeed="max"/>
    <vehicle id="329" type="car" depart="0.00" route="2" departSpeed="max"/>
    <vehicle id="33" type="car" depart="0.00" route="2" departSpeed="max"/>
    <vehicle id="330" type="car" depart="0.00" route="2" departSpeed="max"/>
    <vehicle id="331" type="car" depart="0.00" route="2" departSpeed="max"/>
    <vehicle id="332" type="car" depart="0.00" route="2" departSpeed="max"/>
    <vehicle id="333" type="car" depart="0.00" route="2" departSpeed="max"/>
    <vehicle id="334" type="car" depart="0.00" route="2" departSpeed="max"/>
    <vehicle id="335" type="car" depart="0.00" route="2" departSpeed="max"/>
    <vehicle id="34" type="car" depart="0.00" route="2" departSpeed="max"/>
    <vehicle id="35" type="car" depart="0.00" route="2" departSpeed="max"/>
    <vehicle id="36" type="car" depart="0.00" route="2" departSpeed="max"/>
    <vehicle id="37" type="car" depart="0.00" route="2" departSpeed="max"/>
    <vehicle id="38" type="car" depart="0.00" route="2" departSpeed="max"/>
    <vehicle id="39" type="car" depart="0.00" route="2" departSpeed="max"/>
    <vehicle id="4" type="car" depart="0.00" route="2" departSpeed="max"/>
    <vehicle id="40" type="car" depart="0.00" route="2" departSpeed="max"/>
    <vehicle id="41" type="car" depart="0.00" route="2" departSpeed="max"/>
    <vehicle id="42" type="car" depart="0.00" route="2" departSpeed="max"/>
    <vehicle id="43" type="car" depart="0.00" route="2" departSpeed="max"/>
    <vehicle id="44" type="car" depart="0.00" route="2" departSpeed="max"/>
    <vehicle id="45" type="car" depart="0.00" route="2" departSpeed="max"/>
    <vehicle id="46" type="car" depart="0.00" route="2" departSpeed="max"/>
    <vehicle id="47" type="car" depart="0.00" route="2" departSpeed="max"/>
    <vehicle id="48" type="car" depart="0.00" route="2" departSpeed="max"/>
    <vehicle id="49" type="car" depart="0.00" route="2" departSpeed="max"/>
    <vehicle id="5" type="car" depart="0.00" route="2" departSpeed="max"/>
    <vehicle id="50" type="car" depart="0.00" route="2" departSpeed="max"/>
    <vehicle id="51" type="car" depart="0.00" route="2" departSpeed="max"/>
    <vehicle id="52" type="car" depart="0.00" route="2" departSpeed="max"/>
    <vehicle id="53" type="car" depart="0.00" route="2" departSpeed="max"/>
    <vehicle id="54" type="car" depart="0.00" route="2" departSpeed="max"/>
    <vehicle id="55" type="car" depart="0.00" route="2" departSpeed="max"/>
    <vehicle id="56" type="car" depart="0.00" route="2" departSpeed="max"/>
    <vehicle id="57" type="car" depart="0.00" route="2" departSpeed="max"/>
    <vehicle id="58" type="car" depart="0.00" route="2" departSpeed="max"/>
    <vehicle id="59" type="car" depart="0.00" route="2" departSpeed="max"/>
    <vehicle id="60" type="car" depart="0.00" route="2" departSpeed="max"/>
    <vehicle id="61" type="car" depart="0.00" route="2" departSpeed="max"/>
    <vehicle id="7" type="car" depart="0.00" route="2" departSpeed="max"/>
    <vehicle id="71" type="car" depart="0.00" route="2" departSpeed="max"/>
    <vehicle id="72" type="car" depart="0.00" route="2" departSpeed="max"/>
    <vehicle id="73" type="car" depart="0.00" route="2" departSpeed="max"/>
    <vehicle id="74" type="car" depart="0.00" route="2" departSpeed="max"/>
    <vehicle id="75" type="car" depart="0.00" route="2" departSpeed="max"/>
    <vehicle id="76" type="car" depart="0.00" route="2" departSpeed="max"/>
    <vehicle id="77" type="car" depart="0.00" route="2" departSpeed="max"/>
    <vehicle id="78" type="car" depart="0.00" route="2" departSpeed="max"/>
    <vehicle id="79" type="car" depart="0.00" route="2" departSpeed="max"/>
    <vehicle id="8" type="car" depart="0.00" route="2" departSpeed="max"/>
    <vehicle id="80" type="car" depart="0.00" route="2" departSpeed="max"/>
    <vehicle id="81" type="car" depart="0.00" route="2" departSpeed="max"/>
    <vehicle id="82" type="car" depart="0.00" route="2" departSpeed="max"/>
    <vehicle id="83" type="car" depart="0.00" route="2" departSpeed="max"/>
    <vehicle id="84" type="car" depart="0.00" route="2" departSpeed="max"/>
    <vehicle id="85" type="car" depart="0.00" route="2" departSpeed="max"/>
    <vehicle id="86" type="car" depart="0.00" route="2" departSpeed="max"/>
    <vehicle id="87" type="car" depart="0.00" route="2" departSpeed="max"/>
    <vehicle id="88" type="car" depart="0.00" route="2" departSpeed="max"/>
    <vehicle id="89" type="car" depart="0.00" route="2" departSpeed="max"/>
    <vehicle id="9" type="car" depart="0.00" route="2" departSpeed="max"/>
    <vehicle id="90" type="car" depart="0.00" route="2" departSpeed="max"/>
    <vehicle id="91" type="car" depart="0.00" route="2" departSpeed="max"/>
    <vehicle id="92" type="car" depart="0.00" route="2" departSpeed="max"/>
    <vehicle id="93" type="car" depart="0.00" route="2" departSpeed="max"/>
    <vehicle id="94" type="car" depart="0.00" route="2" departSpeed="max"/>
    <vehicle id="95" type="car" depart="0.00" route="2" departSpeed="max"/>
    <vehicle id="96" type="car" depart="0.00" route="2" departSpeed="max"/>
    <vehicle id="97" type="car" depart="0.00" route="2" departSpeed="max"/>
    <vehicle id="98" type="car" depart="0.00" route="2" departSpeed="max"/>
    <vehicle id="99" type="car" depart="0.00" route="2" departSpeed="max"/>
    <vehicle id="6" type="car" depart="10.00" route="2" departSpeed="max"/>
</routes>
